data_structure

_audit_creation_method RASPA-1.0
_audit_creation_date 2023-5-9
_audit_author_name 'Poobodin Mano'

_cell_length_a    35.6111
_cell_length_b    34.6599
_cell_length_c    35.7442
_cell_angle_alpha 89.9988
_cell_angle_beta  90.0003
_cell_angle_gamma 89.9991
_cell_volume      44118.2

_symmetry_cell_setting          triclinic
_symmetry_space_group_name_Hall 'P 1'
_symmetry_space_group_name_H-M  'P 1'
_symmetry_Int_Tables_number     1

_symmetry_equiv_pos_as_xyz 'x,y,z'

loop_
_atom_site_label
_atom_site_type_symbol
_atom_site_fract_x
_atom_site_fract_y
_atom_site_fract_z
_atom_site_charge
C1       C      0.061440000000     0.005380000000     0.437830000000     0.357216   
C2       C      0.003140000000     0.154270000000     0.588500000000     0.378984   
C3       C      0.113630000000     0.036790000000     0.614280000000     0.381055   
C4       C      0.057690000000     0.090840000000     0.508550000000     0.357733   
C5       C      0.140550000000     0.938600000000     0.490550000000     0.380003   
C6       C      0.008580000000     0.884940000000     0.416990000000     0.378926   
C7       C      0.037280000000     0.966930000000     0.564530000000     0.357033   
C8       C      0.974450000000     0.072210000000     0.441150000000     0.357655   
C9       C      0.954070000000     0.948190000000     0.496980000000     0.357867   
C10      C      0.950480000000     0.033710000000     0.567860000000     0.357385   
C11      C      0.898040000000     0.002120000000     0.391500000000     0.381338   
C12      C      0.871120000000     0.100280000000     0.515280000000     0.379885   
C13      C      0.942130000000     0.506090000000     0.943780000000     0.356081   
C14      C      0.091600000000     0.654140000000     0.005910000000     0.380847   
C15      C      0.122100000000     0.533860000000     0.900180000000     0.379576   
C16      C      0.013770000000     0.590340000000     0.949140000000     0.357943   
C17      C      0.997810000000     0.436920000000     0.869030000000     0.380081   
C18      C      0.917340000000     0.386740000000     0.997880000000     0.380309   
C19      C      0.067340000000     0.466280000000     0.974890000000     0.358176   
C20      C      0.941420000000     0.574620000000     0.029090000000     0.357538   
C21      C      0.995020000000     0.450490000000     0.054680000000     0.357956   
C22      C      0.066770000000     0.534950000000     0.060030000000     0.356784   
C23      C      0.887030000000     0.506670000000     0.104130000000     0.379318   
C24      C      0.011260000000     0.603960000000     0.134860000000     0.37998    
C25      C      0.570710000000     0.501470000000     0.556740000000     0.356427   
C26      C      0.421920000000     0.655470000000     0.505970000000     0.379155   
C27      C      0.395240000000     0.535060000000     0.613030000000     0.379269   
C28      C      0.501500000000     0.588480000000     0.557340000000     0.358954   
C29      C      0.517890000000     0.433370000000     0.634370000000     0.381794   
C30      C      0.588400000000     0.382040000000     0.500540000000     0.379004   
C31      C      0.442310000000     0.466590000000     0.533890000000     0.357114   
C32      C      0.567760000000     0.570840000000     0.472510000000     0.357363   
C33      C      0.508740000000     0.448830000000     0.449100000000     0.358821   
C34      C      0.439360000000     0.535940000000     0.449850000000     0.356832   
C35      C      0.614750000000     0.502190000000     0.393230000000     0.379244   
C36      C      0.491900000000     0.603880000000     0.372100000000     0.38181    
C37      C      0.502060000000     0.932620000000     0.992650000000     0.358691   
C38      C      0.632990000000     0.108650000000     0.987540000000     0.380899   
C39      C      0.612910000000     0.017860000000     0.117220000000     0.381198   
C40      C      0.586950000000     0.001550000000     0.990930000000     0.356455   
C41      C      0.510930000000     0.891650000000     0.098390000000     0.379784   
C42      C      0.375460000000     0.932090000000     0.023440000000     0.381232   
C43      C      0.501130000000     0.025600000000     0.091710000000     0.358071   
C44      C      0.507140000000     0.015660000000     0.919290000000     0.357554   
C45      C      0.421210000000     0.039750000000     0.019910000000     0.356729   
C46      C      0.506070000000     0.108690000000     0.018180000000     0.358732   
C47      C      0.395440000000     0.023060000000     0.893390000000     0.381227   
C48      C      0.497400000000     0.149500000000     0.912140000000     0.379454   
C49      C      0.470740000000     0.662350000000     0.344240000000     0.0684393  
C50      C      0.470970000000     0.688300000000     0.314450000000    -0.0927808  
C51      C      0.487070000000     0.677650000000     0.280310000000     0.0485479  
C52      C      0.500660000000     0.640040000000     0.276120000000    -0.0925013  
C53      C      0.500400000000     0.614870000000     0.306700000000     0.0691733  
C54      C      0.492170000000     0.706670000000     0.250370000000    -0.00711903 
C55      C      0.508270000000     0.742560000000     0.259030000000    -0.0357402  
C56      C      0.513520000000     0.770260000000     0.231240000000    -0.0357876  
C57      C      0.502370000000     0.762850000000     0.194260000000    -0.00702143 
C58      C      0.486300000000     0.726920000000     0.185470000000    -0.0360261  
C59      C      0.481600000000     0.698860000000     0.213280000000    -0.0359595  
C60      C      0.506160000000     0.793460000000     0.165620000000     0.0483653  
C61      C      0.475530000000     0.803840000000     0.143330000000    -0.0921786  
C62      C      0.478000000000     0.836070000000     0.120020000000     0.0681364  
C63      C      0.541230000000     0.846240000000     0.138360000000     0.069027   
C64      C      0.539540000000     0.814500000000     0.162340000000    -0.0926904  
C65      C      0.467320000000     0.194270000000     0.871310000000     0.0689096  
C66      C      0.469220000000     0.225510000000     0.846720000000    -0.0925803  
C67      C      0.502640000000     0.246440000000     0.843260000000     0.0482997  
C68      C      0.533100000000     0.236500000000     0.865980000000    -0.0921317  
C69      C      0.530420000000     0.204760000000     0.889890000000     0.0681438  
C70      C      0.506670000000     0.276480000000     0.814070000000    -0.00699597 
C71      C      0.495680000000     0.268420000000     0.777170000000    -0.0358496  
C72      C      0.501100000000     0.295610000000     0.748930000000    -0.0357666  
C73      C      0.517210000000     0.331640000000     0.757050000000    -0.00713389 
C74      C      0.527680000000     0.340060000000     0.794050000000    -0.0359458  
C75      C      0.522800000000     0.312520000000     0.822300000000    -0.0359863  
C76      C      0.522290000000     0.360250000000     0.726720000000     0.0485221  
C77      C      0.508980000000     0.398000000000     0.730600000000    -0.0925971  
C78      C      0.509340000000     0.422880000000     0.699820000000     0.0692614  
C79      C      0.538520000000     0.374850000000     0.662580000000     0.0684186  
C80      C      0.538160000000     0.349140000000     0.692590000000    -0.0927615  
C81      C      0.674550000000     0.152110000000     0.956430000000     0.0686498  
C82      C      0.706770000000     0.175150000000     0.956690000000    -0.0915476  
C83      C      0.732260000000     0.172630000000     0.986510000000     0.0477134  
C84      C      0.725540000000     0.145200000000     0.014470000000    -0.0917794  
C85      C      0.692920000000     0.122970000000     0.013550000000     0.0682907  
C86      C      0.764170000000     0.200160000000     0.989810000000    -0.00662069 
C87      C      0.783800000000     0.212830000000     0.957980000000    -0.035667   
C88      C      0.811690000000     0.241050000000     0.961040000000    -0.0355892  
C89      C      0.820710000000     0.257170000000     0.996030000000    -0.00662015 
C90      C      0.801940000000     0.243560000000     0.027990000000    -0.0356604  
C91      C      0.773950000000     0.215550000000     0.024910000000    -0.0353431  
C92      C      0.848000000000     0.289520000000     0.998890000000     0.0479203  
C93      C      0.880300000000     0.290500000000     0.976560000000    -0.0920809  
C94      C      0.903910000000     0.322680000000     0.977490000000     0.0692113  
C95      C      0.865340000000     0.352290000000     0.023260000000     0.068495   
C96      C      0.841090000000     0.320670000000     0.022920000000    -0.0915401  
C97      C      0.145420000000     0.686960000000     0.982460000000     0.068506   
C98      C      0.170850000000     0.717490000000     0.984280000000    -0.09298    
C99      C      0.163600000000     0.748880000000     0.007770000000     0.0488355  
C100     C      0.129840000000     0.749770000000     0.027710000000    -0.092674   
C101     C      0.105230000000     0.718420000000     0.025690000000     0.0694369  
C102     C      0.192370000000     0.779140000000     0.013200000000    -0.00722197 
C103     C      0.229380000000     0.768510000000     0.021980000000    -0.035746   
C104     C      0.256950000000     0.796580000000     0.027100000000    -0.0357879  
C105     C      0.248200000000     0.835860000000     0.023070000000    -0.00707395 
C106     C      0.211140000000     0.846610000000     0.014400000000    -0.035966   
C107     C      0.183310000000     0.818440000000     0.009920000000    -0.0358665  
C108     C      0.278420000000     0.865010000000     0.026030000000     0.0485371  
C109     C      0.304020000000     0.863850000000     0.055710000000    -0.0927983  
C110     C      0.335320000000     0.888090000000     0.055480000000     0.0690398  
C111     C      0.315750000000     0.915520000000     0.997900000000     0.0680197  
C112     C      0.283850000000     0.892090000000     0.997560000000    -0.0922766  
C113     C      0.182290000000     0.554200000000     0.878160000000     0.0685017  
C114     C      0.210270000000     0.554210000000     0.850660000000    -0.0920776  
C115     C      0.206680000000     0.530430000000     0.819180000000     0.0480357  
C116     C      0.175080000000     0.506680000000     0.816330000000    -0.0920757  
C117     C      0.147470000000     0.507760000000     0.843980000000     0.0681199  
C118     C      0.235190000000     0.530860000000     0.788920000000    -0.00685954 
C119     C      0.248440000000     0.565980000000     0.774370000000    -0.0358352  
C120     C      0.274020000000     0.566330000000     0.744670000000    -0.0358324  
C121     C      0.287210000000     0.531560000000     0.729280000000    -0.00687666 
C122     C      0.274270000000     0.496460000000     0.744130000000    -0.0358319  
C123     C      0.248370000000     0.496110000000     0.773500000000    -0.0359393  
C124     C      0.314820000000     0.531840000000     0.698180000000     0.0480805  
C125     C      0.310110000000     0.556210000000     0.667280000000    -0.0921341  
C126     C      0.336800000000     0.556320000000     0.638560000000     0.0685844  
C127     C      0.372660000000     0.509000000000     0.670460000000     0.0681034  
C128     C      0.346340000000     0.507810000000     0.699350000000    -0.0920942  
C129     C      0.826480000000     0.487020000000     0.125860000000     0.0684509  
C130     C      0.798890000000     0.486280000000     0.153750000000    -0.0914501  
C131     C      0.803760000000     0.507720000000     0.186670000000     0.0477014  
C132     C      0.836040000000     0.530480000000     0.190120000000    -0.0917518  
C133     C      0.863020000000     0.530480000000     0.161840000000     0.0680712  
C134     C      0.775800000000     0.506090000000     0.217580000000    -0.00649988 
C135     C      0.737080000000     0.505570000000     0.209980000000    -0.0357246  
C136     C      0.710970000000     0.504780000000     0.239200000000    -0.0356303  
C137     C      0.722930000000     0.504460000000     0.276730000000    -0.00649301 
C138     C      0.761650000000     0.504560000000     0.284300000000    -0.0357066  
C139     C      0.787740000000     0.505330000000     0.255100000000    -0.0356585  
C140     C      0.695120000000     0.504460000000     0.307820000000     0.0477516  
C141     C      0.662430000000     0.526750000000     0.305460000000    -0.0915983  
C142     C      0.636240000000     0.526070000000     0.334500000000     0.0680271  
C143     C      0.674110000000     0.482320000000     0.368750000000     0.0686029  
C144     C      0.700910000000     0.482290000000     0.340130000000    -0.0916066  
C145     C      0.604190000000     0.319060000000     0.522520000000     0.0687457  
C146     C      0.629060000000     0.287860000000     0.523860000000    -0.0916864  
C147     C      0.659960000000     0.286680000000     0.499660000000     0.047828   
C148     C      0.663680000000     0.315950000000     0.472890000000    -0.0917747  
C149     C      0.638340000000     0.346680000000     0.472320000000     0.0679801  
C150     C      0.689560000000     0.256720000000     0.503940000000    -0.00658698 
C151     C      0.680360000000     0.218000000000     0.511410000000    -0.0357849  
C152     C      0.708670000000     0.190400000000     0.516420000000    -0.0358663  
C153     C      0.746730000000     0.201050000000     0.514410000000    -0.00657588 
C154     C      0.755800000000     0.239750000000     0.506890000000    -0.0356797  
C155     C      0.727620000000     0.267190000000     0.501750000000    -0.0355715  
C156     C      0.777220000000     0.172120000000     0.519110000000     0.0477527  
C157     C      0.775060000000     0.135830000000     0.502010000000    -0.09168    
C158     C      0.806100000000     0.111100000000     0.502730000000     0.0686214  
C159     C      0.840390000000     0.156240000000     0.538960000000     0.0678796  
C160     C      0.809940000000     0.181570000000     0.538820000000    -0.0919094  
C161     C      0.406430000000     0.718540000000     0.484040000000     0.0687409  
C162     C      0.381720000000     0.749870000000     0.482710000000    -0.0916757  
C163     C      0.350790000000     0.751180000000     0.506870000000     0.0477507  
C164     C      0.346880000000     0.721880000000     0.533580000000    -0.0917645  
C165     C      0.372070000000     0.691020000000     0.534150000000     0.0678737  
C166     C      0.321360000000     0.781310000000     0.502590000000    -0.00660031 
C167     C      0.330780000000     0.819990000000     0.495210000000    -0.0358399  
C168     C      0.302630000000     0.847750000000     0.490140000000    -0.035866   
C169     C      0.264510000000     0.837300000000     0.491990000000    -0.00663286 
C170     C      0.255220000000     0.798640000000     0.499440000000    -0.0356844  
C171     C      0.283240000000     0.771040000000     0.504660000000    -0.0356663  
C172     C      0.234190000000     0.866380000000     0.487150000000     0.0477009  
C173     C      0.236400000000     0.902630000000     0.504310000000    -0.0916255  
C174     C      0.205470000000     0.927510000000     0.503440000000     0.0685039  
C175     C      0.171210000000     0.882580000000     0.466930000000     0.0678459  
C176     C      0.201550000000     0.857110000000     0.467220000000    -0.0918676  
C177     C      0.135950000000     0.053530000000     0.675210000000     0.0689444  
C178     C      0.163940000000     0.052640000000     0.702670000000    -0.0918587  
C179     C      0.197460000000     0.032510000000     0.696140000000     0.0481471  
C180     C      0.201840000000     0.013460000000     0.661890000000    -0.0922614  
C181     C      0.173340000000     0.014810000000     0.635210000000     0.0684635  
C182     C      0.227830000000     0.031260000000     0.724670000000    -0.00681982 
C183     C      0.236850000000     0.064110000000     0.745940000000    -0.0356558  
C184     C      0.265770000000     0.062850000000     0.772390000000    -0.0356428  
C185     C      0.286360000000     0.028730000000     0.778140000000    -0.00677141 
C186     C      0.277430000000     0.995980000000     0.756720000000    -0.0355156  
C187     C      0.248480000000     0.997190000000     0.730430000000    -0.0354628  
C188     C      0.316280000000     0.026850000000     0.807120000000     0.0479207  
C189     C      0.340730000000     0.057920000000     0.813160000000    -0.0916676  
C190     C      0.367710000000     0.055910000000     0.841540000000     0.0680111  
C191     C      0.347460000000     0.992860000000     0.857460000000     0.0694874  
C192     C      0.320210000000     0.993960000000     0.829500000000    -0.092184   
C193     C      0.837330000000     0.021840000000     0.371240000000     0.0686917  
C194     C      0.808650000000     0.022280000000     0.344720000000    -0.092576   
C195     C      0.813950000000     0.004440000000     0.310060000000     0.0484304  
C196     C      0.848460000000     0.986650000000     0.302670000000    -0.0923363  
C197     C      0.876480000000     0.986300000000     0.330090000000     0.0694151  
C198     C      0.783520000000     0.004760000000     0.281810000000    -0.00717231 
C199     C      0.746490000000     0.995570000000     0.292130000000    -0.0356322  
C200     C      0.717490000000     0.997200000000     0.265830000000    -0.0357049  
C201     C      0.724930000000     0.008570000000     0.228870000000    -0.00713955 
C202     C      0.762020000000     0.017430000000     0.218480000000    -0.0358108  
C203     C      0.791080000000     0.015300000000     0.244650000000    -0.0357399  
C204     C      0.694100000000     0.011760000000     0.201220000000     0.0482526  
C205     C      0.667720000000     0.982150000000     0.196970000000    -0.0919107  
C206     C      0.640090000000     0.984980000000     0.169310000000     0.0681803  
C207     C      0.663010000000     0.046530000000     0.151450000000     0.069264   
C208     C      0.691190000000     0.044410000000     0.178440000000    -0.092857   
C209     C      0.036660000000     0.658340000000     0.167020000000     0.0679786  
C210     C      0.037940000000     0.682450000000     0.198310000000    -0.0916872  
C211     C      0.017300000000     0.673080000000     0.230390000000     0.0480339  
C212     C      0.997110000000     0.638450000000     0.230810000000    -0.0922863  
C213     C      0.996760000000     0.614780000000     0.199170000000     0.0687146  
C214     C      0.015290000000     0.700350000000     0.262370000000    -0.00679088 
C215     C      0.047730000000     0.719100000000     0.275420000000    -0.0358284  
C216     C      0.045330000000     0.746730000000     0.303810000000    -0.035705   
C217     C      0.010390000000     0.756500000000     0.319500000000    -0.00668436 
C218     C      0.978040000000     0.737220000000     0.306960000000    -0.0359738  
C219     C      0.980500000000     0.709300000000     0.278830000000    -0.0356335  
C220     C      0.007600000000     0.788110000000     0.347410000000     0.0479811  
C221     C      0.980040000000     0.816690000000     0.343900000000    -0.0915924  
C222     C      0.979970000000     0.848270000000     0.368200000000     0.0678314  
C223     C      0.032480000000     0.822870000000     0.400690000000     0.0687632  
C224     C      0.033580000000     0.791120000000     0.376640000000    -0.0921977  
C225     C      0.979140000000     0.216390000000     0.604370000000     0.0688224  
C226     C      0.977850000000     0.248250000000     0.628280000000    -0.0922509  
C227     C      0.003590000000     0.251390000000     0.657700000000     0.0479312  
C228     C      0.031130000000     0.222820000000     0.661530000000    -0.091591   
C229     C      0.031400000000     0.191140000000     0.637350000000     0.0677958  
C230     C      0.000540000000     0.283120000000     0.685450000000    -0.00674162 
C231     C      0.965430000000     0.293000000000     0.700700000000    -0.0357416  
C232     C      0.962720000000     0.320840000000     0.728860000000    -0.0358964  
C233     C      0.995010000000     0.339680000000     0.742120000000    -0.00682045 
C234     C      0.029990000000     0.330600000000     0.726120000000    -0.0356845  
C235     C      0.032750000000     0.302470000000     0.698220000000    -0.0359538  
C236     C      0.992650000000     0.367200000000     0.773870000000     0.0478734  
C237     C      0.971620000000     0.358100000000     0.805780000000    -0.0917221  
C238     C      0.972580000000     0.382440000000     0.836910000000     0.0679071  
C239     C      0.012880000000     0.425720000000     0.804910000000     0.0686776  
C240     C      0.012860000000     0.401830000000     0.773430000000    -0.0922449  
H1       H      0.026040000000     0.938390000000     0.569400000000    -0.0612172  
H2       H      0.930100000000     0.944580000000     0.515210000000    -0.0619865  
H3       H      0.985680000000     0.100770000000     0.436370000000    -0.061455   
H4       H      0.954240000000     0.020330000000     0.594920000000    -0.0614072  
H5       H      0.081610000000     0.094400000000     0.490250000000    -0.0617602  
H6       H      0.057720000000     0.018780000000     0.410770000000    -0.0613239  
H7       H      0.071330000000     0.437900000000     0.986810000000    -0.0616693  
H8       H      0.012050000000     0.447320000000     0.079530000000    -0.0617694  
H9       H      0.937380000000     0.602990000000     0.017180000000    -0.0614429  
H10      H      0.093880000000     0.521070000000     0.057950000000    -0.0612513  
H11      H      0.996730000000     0.593420000000     0.924290000000    -0.0616828  
H12      H      0.915050000000     0.520030000000     0.945790000000    -0.0608931  
H13      H      0.436490000000     0.438550000000     0.521980000000    -0.0615468  
H14      H      0.490060000000     0.446500000000     0.425370000000    -0.0623176  
H15      H      0.573500000000     0.598900000000     0.484430000000    -0.0616026  
H16      H      0.412040000000     0.522950000000     0.453720000000    -0.0611185  
H17      H      0.520220000000     0.590750000000     0.581050000000    -0.062125   
H18      H      0.598030000000     0.514490000000     0.552910000000    -0.0609568  
H19      H      0.475000000000     0.030600000000     0.106310000000    -0.0616962  
H20      H      0.411720000000     0.069000000000     0.024520000000    -0.0606866  
H21      H      0.533290000000     0.010590000000     0.904730000000    -0.0613473  
H22      H      0.506830000000     0.120900000000     0.046000000000    -0.0618914  
H23      H      0.596480000000     0.972320000000     0.986300000000    -0.0606159  
H24      H      0.501240000000     0.920410000000     0.964830000000    -0.0620143  
H25      H      0.458950000000     0.672290000000     0.370490000000     0.024947   
H26      H      0.459500000000     0.716970000000     0.318440000000     0.0522701  
H27      H      0.513140000000     0.630740000000     0.249990000000     0.052185   
H28      H      0.512610000000     0.586500000000     0.302800000000     0.0236441  
H29      H      0.517060000000     0.749130000000     0.287340000000     0.037784   
H30      H      0.525590000000     0.797860000000     0.238850000000     0.0377996  
H31      H      0.477530000000     0.720530000000     0.157130000000     0.037641   
H32      H      0.469140000000     0.671370000000     0.205960000000     0.0376389  
H33      H      0.449220000000     0.788250000000     0.145140000000     0.052121   
H34      H      0.453210000000     0.843830000000     0.104100000000     0.0254963  
H35      H      0.567370000000     0.862250000000     0.137350000000     0.0242402  
H36      H      0.563990000000     0.806940000000     0.178820000000     0.0522399  
H37      H      0.441170000000     0.178290000000     0.872440000000     0.0241447  
H38      H      0.444880000000     0.232750000000     0.829930000000     0.0520292  
H39      H      0.559430000000     0.252030000000     0.864060000000     0.0522927  
H40      H      0.555110000000     0.197310000000     0.906120000000     0.0256778  
H41      H      0.483580000000     0.240720000000     0.769980000000     0.0378083  
H42      H      0.492370000000     0.288580000000     0.720710000000     0.037702   
H43      H      0.540150000000     0.367650000000     0.800970000000     0.0377195  
H44      H      0.531470000000     0.319410000000     0.850570000000     0.0377248  
H45      H      0.496660000000     0.407650000000     0.756680000000     0.0522639  
H46      H      0.497380000000     0.451390000000     0.703540000000     0.023711   
H47      H      0.550130000000     0.364590000000     0.636360000000     0.0248385  
H48      H      0.549410000000     0.320360000000     0.688810000000     0.052254   
H49      H      0.654970000000     0.155940000000     0.933500000000     0.0241059  
H50      H      0.710670000000     0.196010000000     0.934480000000     0.0515066  
H51      H      0.744980000000     0.141380000000     0.037470000000     0.0515256  
H52      H      0.688480000000     0.102870000000     0.036370000000     0.0256482  
H53      H      0.777340000000     0.201270000000     0.930570000000     0.0370032  
H54      H      0.825320000000     0.251080000000     0.935770000000     0.0371801  
H55      H      0.808520000000     0.254930000000     0.055440000000     0.0372268  
H56      H      0.759180000000     0.206910000000     0.050030000000     0.0370145  
H57      H      0.887190000000     0.266720000000     0.958140000000     0.051642   
H58      H      0.928190000000     0.322470000000     0.959190000000     0.0238661  
H59      H      0.858310000000     0.376080000000     0.041690000000     0.0251195  
H60      H      0.816320000000     0.321410000000     0.040480000000     0.0517361  
H61      H      0.152660000000     0.662830000000     0.964560000000     0.0247509  
H62      H      0.196470000000     0.716180000000     0.967970000000     0.052355   
H63      H      0.123280000000     0.773720000000     0.046060000000     0.0524854  
H64      H      0.079980000000     0.719580000000     0.042600000000     0.0237517  
H65      H      0.236970000000     0.738400000000     0.025040000000     0.0378801  
H66      H      0.285380000000     0.787500000000     0.033340000000     0.0378286  
H67      H      0.203750000000     0.876740000000     0.011160000000     0.0379289  
H68      H      0.154930000000     0.827270000000     0.003170000000     0.0379299  
H69      H      0.300390000000     0.843580000000     0.078500000000     0.0522296  
H70      H      0.354990000000     0.885460000000     0.078490000000     0.0240716  
H71      H      0.319600000000     0.935120000000     0.974580000000     0.0257181  
H72      H      0.264590000000     0.893830000000     0.974150000000     0.0523653  
H73      H      0.185980000000     0.573270000000     0.901920000000     0.0239432  
H74      H      0.234550000000     0.572700000000     0.854050000000     0.0519249  
H75      H      0.171160000000     0.488020000000     0.792320000000     0.0519558  
H76      H      0.123220000000     0.489250000000     0.840190000000     0.02573    
H77      H      0.238480000000     0.593190000000     0.785490000000     0.0376676  
H78      H      0.283790000000     0.593800000000     0.733990000000     0.0376034  
H79      H      0.283820000000     0.469220000000     0.732700000000     0.0376395  
H80      H      0.238770000000     0.468620000000     0.784280000000     0.0375901  
H81      H      0.285840000000     0.574920000000     0.665180000000     0.0519355  
H82      H      0.332170000000     0.575740000000     0.615230000000     0.0239493  
H83      H      0.396850000000     0.490160000000     0.672850000000     0.0259702  
H84      H      0.351100000000     0.488710000000     0.722860000000     0.0522153  
H85      H      0.821950000000     0.469400000000     0.101210000000     0.02399    
H86      H      0.774410000000     0.468170000000     0.149910000000     0.0515279  
H87      H      0.840580000000     0.548280000000     0.214610000000     0.051658   
H88      H      0.887700000000     0.548270000000     0.166120000000     0.0256406  
H89      H      0.726890000000     0.506390000000     0.181450000000     0.0372435  
H90      H      0.681350000000     0.504190000000     0.232340000000     0.0371849  
H91      H      0.771880000000     0.504660000000     0.312830000000     0.0371799  
H92      H      0.817360000000     0.505130000000     0.261990000000     0.0371313  
H93      H      0.657110000000     0.544940000000     0.281400000000     0.0518703  
H94      H      0.611310000000     0.543710000000     0.331220000000     0.0258157  
H95      H      0.679530000000     0.464390000000     0.393000000000     0.0238514  
H96      H      0.725650000000     0.464380000000     0.343070000000     0.0515056  
H97      H      0.581480000000     0.319490000000     0.542710000000     0.0240198  
H98      H      0.625040000000     0.265830000000     0.544970000000     0.0516531  
H99      H      0.686610000000     0.315650000000     0.452980000000     0.0518594  
H100     H      0.643040000000     0.369220000000     0.451810000000     0.0252721  
H101     H      0.651290000000     0.208990000000     0.513130000000     0.0371771  
H102     H      0.700780000000     0.160840000000     0.522280000000     0.0371871  
H103     H      0.784800000000     0.248850000000     0.504550000000     0.037323   
H104     H      0.735750000000     0.296840000000     0.496610000000     0.0373052  
H105     H      0.750250000000     0.127280000000     0.486570000000     0.0516084  
H106     H      0.803730000000     0.083950000000     0.487860000000     0.0239242  
H107     H      0.865520000000     0.165370000000     0.553630000000     0.025133   
H108     H      0.812420000000     0.208880000000     0.553350000000     0.0516156  
H109     H      0.429170000000     0.718030000000     0.463880000000     0.0239708  
H110     H      0.385880000000     0.771930000000     0.461650000000     0.0516316  
H111     H      0.323920000000     0.722270000000     0.553460000000     0.0516596  
H112     H      0.367230000000     0.668460000000     0.554610000000     0.0251541  
H113     H      0.359900000000     0.828850000000     0.493600000000     0.0371692  
H114     H      0.310690000000     0.877280000000     0.484340000000     0.03723    
H115     H      0.226160000000     0.789690000000     0.501660000000     0.037276   
H116     H      0.274950000000     0.741430000000     0.509730000000     0.0373145  
H117     H      0.261160000000     0.911050000000     0.519910000000     0.0515528  
H118     H      0.207860000000     0.954630000000     0.518370000000     0.0240143  
H119     H      0.146140000000     0.873580000000     0.452100000000     0.0251894  
H120     H      0.199050000000     0.829830000000     0.452640000000     0.0516588  
H121     H      0.110510000000     0.069490000000     0.681360000000     0.0237332  
H122     H      0.159120000000     0.067340000000     0.728970000000     0.051654   
H123     H      0.227450000000     0.998030000000     0.655330000000     0.0519234  
H124     H      0.178270000000     0.999740000000     0.609080000000     0.0255774  
H125     H      0.221810000000     0.090950000000     0.741920000000     0.0370616  
H126     H      0.271600000000     0.088480000000     0.788720000000     0.0370451  
H127     H      0.292950000000     0.969340000000     0.760100000000     0.0371957  
H128     H      0.242050000000     0.971210000000     0.714870000000     0.0373426  
H129     H      0.339120000000     0.083670000000     0.796080000000     0.0515285  
H130     H      0.385780000000     0.080750000000     0.845520000000     0.024864   
H131     H      0.348960000000     0.966940000000     0.874370000000     0.0239868  
H132     H      0.301690000000     0.969410000000     0.826180000000     0.0517077  
H133     H      0.831840000000     0.036020000000     0.397720000000     0.0251313  
H134     H      0.782530000000     0.036840000000     0.351250000000     0.052294   
H135     H      0.853540000000     0.972500000000     0.276130000000     0.0522277  
H136     H      0.902630000000     0.971800000000     0.323470000000     0.023606   
H137     H      0.739970000000     0.987070000000     0.320560000000     0.0375521  
H138     H      0.689140000000     0.990350000000     0.274580000000     0.0376294  
H139     H      0.768550000000     0.025910000000     0.190050000000     0.0377089  
H140     H      0.819330000000     0.022730000000     0.236030000000     0.0377531  
H141     H      0.669060000000     0.956450000000     0.214170000000     0.0520146  
H142     H      0.620720000000     0.961040000000     0.166340000000     0.0251242  
H143     H      0.662190000000     0.072210000000     0.134150000000     0.0239642  
H144     H      0.710700000000     0.068210000000     0.181380000000     0.0521182  
H145     H      0.052230000000     0.667300000000     0.142440000000     0.0255944  
H146     H      0.053840000000     0.709050000000     0.196790000000     0.0521294  
H147     H      0.981260000000     0.629880000000     0.255310000000     0.0518129  
H148     H      0.980130000000     0.588620000000     0.200530000000     0.0239522  
H149     H      0.074950000000     0.712620000000     0.263430000000     0.0376469  
H150     H      0.070710000000     0.761340000000     0.312660000000     0.0376854  
H151     H      0.950780000000     0.743970000000     0.318690000000     0.037686   
H152     H      0.954960000000     0.695580000000     0.269130000000     0.0375819  
H153     H      0.959490000000     0.815510000000     0.321590000000     0.0521812  
H154     H      0.958760000000     0.870250000000     0.363790000000     0.0256838  
H155     H      0.053620000000     0.824340000000     0.422470000000     0.0240779  
H156     H      0.054970000000     0.769280000000     0.380650000000     0.0518398  
H157     H      0.958170000000     0.214840000000     0.582440000000     0.0240203  
H158     H      0.956490000000     0.270070000000     0.624000000000     0.051804   
H159     H      0.051510000000     0.224110000000     0.683990000000     0.0519341  
H160     H      0.052580000000     0.169190000000     0.642000000000     0.0254788  
H161     H      0.940140000000     0.278330000000     0.691670000000     0.0375593  
H162     H      0.935370000000     0.327410000000     0.740500000000     0.0375216  
H163     H      0.055420000000     0.344390000000     0.736000000000     0.0374217  
H164     H      0.060140000000     0.295640000000     0.686820000000     0.0375     
H165     H      0.955670000000     0.331530000000     0.807300000000     0.0518634  
H166     H      0.956730000000     0.373670000000     0.861380000000     0.0254163  
H167     H      0.029560000000     0.451860000000     0.803560000000     0.02412    
H168     H      0.028990000000     0.410200000000     0.749050000000     0.0519034  
Mg1      Mg     0.911960000000     0.021520000000     0.483510000000     0.791566   
Mg2      Mg     0.983800000000     0.979470000000     0.417590000000     0.787009   
Mg3      Mg     0.028090000000     0.059780000000     0.588060000000     0.786153   
Mg4      Mg     0.045790000000     0.930830000000     0.488730000000     0.790534   
Mg5      Mg     0.965920000000     0.108210000000     0.516850000000     0.790661   
Mg6      Mg     0.099770000000     0.017430000000     0.522260000000     0.791422   
Mg7      Mg     0.980040000000     0.524950000000     0.094130000000     0.792296   
Mg8      Mg     0.917260000000     0.481880000000     0.020520000000     0.786458   
Mg9      Mg     0.091550000000     0.558980000000     0.983430000000     0.787444   
Mg10     Mg     0.991350000000     0.431030000000     0.963410000000     0.790321   
Mg11     Mg     0.017400000000     0.610000000000     0.040390000000     0.789656   
Mg12     Mg     0.029020000000     0.515870000000     0.909780000000     0.791987   
Mg13     Mg     0.523110000000     0.523260000000     0.409580000000     0.791296   
Mg14     Mg     0.589420000000     0.477270000000     0.478440000000     0.786585   
Mg15     Mg     0.420730000000     0.560270000000     0.528110000000     0.786737   
Mg16     Mg     0.517720000000     0.428320000000     0.539720000000     0.790534   
Mg17     Mg     0.492450000000     0.609000000000     0.466740000000     0.791041   
Mg18     Mg     0.486850000000     0.514020000000     0.596790000000     0.791551   
Mg19     Mg     0.448850000000     0.079040000000     0.950110000000     0.787437   
Mg20     Mg     0.434630000000     0.972000000000     0.960420000000     0.793957   
Mg21     Mg     0.573510000000     0.069120000000     0.050450000000     0.794947   
Mg22     Mg     0.453850000000     0.960860000000     0.062990000000     0.790915   
Mg23     Mg     0.554490000000     0.080550000000     0.947890000000     0.788918   
Mg24     Mg     0.559300000000     0.962200000000     0.060650000000     0.788766   
N1       N      0.486880000000     0.626490000000     0.340930000000    -0.189635   
N2       N      0.510270000000     0.857790000000     0.118340000000    -0.189314   
N3       N      0.498140000000     0.183070000000     0.891730000000    -0.189216   
N4       N      0.522710000000     0.410880000000     0.665660000000    -0.189642   
N5       N      0.666950000000     0.127290000000     0.985410000000    -0.189649   
N6       N      0.895990000000     0.353800000000     0.999980000000    -0.189385   
N7       N      0.113540000000     0.686690000000     0.004120000000    -0.189362   
N8       N      0.341980000000     0.912600000000     0.026000000000    -0.189553   
N9       N      0.150740000000     0.531690000000     0.874490000000    -0.189079   
N10      N      0.368150000000     0.533280000000     0.640360000000    -0.189022   
N11      N      0.858700000000     0.508360000000     0.130210000000    -0.188915   
N12      N      0.641770000000     0.503720000000     0.365800000000    -0.188878   
N13      N      0.609650000000     0.349030000000     0.497910000000    -0.188842   
N14      N      0.839080000000     0.121930000000     0.519740000000    -0.189079   
N15      N      0.400800000000     0.688560000000     0.508600000000    -0.188894   
N16      N      0.172540000000     0.916850000000     0.486220000000    -0.189086   
N17      N      0.140690000000     0.034900000000     0.641620000000    -0.18942    
N18      N      0.370680000000     0.023830000000     0.863920000000    -0.189602   
N19      N      0.870890000000     0.003590000000     0.364230000000    -0.189618   
N20      N      0.638150000000     0.016660000000     0.146260000000    -0.189673   
N21      N      0.015440000000     0.625220000000     0.167060000000    -0.189088   
N22      N      0.006590000000     0.851880000000     0.395830000000    -0.188784   
N23      N      0.004990000000     0.187420000000     0.609540000000    -0.188849   
N24      N      0.993850000000     0.415520000000     0.836890000000    -0.189166   
O1       O      0.953380000000     0.974930000000     0.472810000000    -0.410995   
O2       O      0.055170000000     0.973240000000     0.534470000000    -0.41079    
O3       O      0.983520000000     0.929000000000     0.504150000000    -0.339287   
O4       O      0.984140000000     0.045460000000     0.418940000000    -0.338521   
O5       O      0.977900000000     0.151260000000     0.563220000000    -0.339556   
O6       O      0.986620000000     0.913220000000     0.409470000000    -0.336423   
O7       O      0.926310000000     0.019270000000     0.545860000000    -0.339276   
O8       O      0.038290000000     0.979640000000     0.448030000000    -0.410804   
O9       O      0.119350000000     0.019420000000     0.583220000000    -0.340854   
O10      O      0.025170000000     0.126080000000     0.596110000000    -0.336258   
O11      O      0.027770000000     0.993740000000     0.586790000000    -0.337763   
O12      O      0.109400000000     0.925720000000     0.477700000000    -0.338235   
O13      O      0.928050000000     0.982620000000     0.385990000000    -0.337714   
O14      O      0.902300000000     0.113280000000     0.527960000000    -0.33812    
O15      O      0.973570000000     0.059480000000     0.557610000000    -0.410875   
O16      O      0.058470000000     0.064210000000     0.532840000000    -0.410957   
O17      O      0.028200000000     0.109960000000     0.501360000000    -0.339122   
O18      O      0.141730000000     0.969470000000     0.510070000000    -0.339313   
O19      O      0.956440000000     0.065850000000     0.471130000000    -0.411111   
O20      O      0.085610000000     0.019760000000     0.459860000000    -0.339176   
O21      O      0.869930000000     0.069360000000     0.495830000000    -0.33938    
O22      O      0.033860000000     0.887810000000     0.442240000000    -0.339242   
O23      O      0.892100000000     0.019240000000     0.422640000000    -0.340944   
O24      O      0.083910000000     0.056790000000     0.619660000000    -0.337588   
O25      O      0.970960000000     0.477410000000     0.053540000000    -0.411727   
O26      O      0.038110000000     0.472640000000     0.955600000000    -0.412448   
O27      O      0.003620000000     0.430590000000     0.026160000000    -0.338885   
O28      O      0.919220000000     0.547890000000     0.019100000000    -0.33834    
O29      O      0.064650000000     0.652630000000     0.029500000000    -0.339396   
O30      O      0.908680000000     0.415850000000     0.018250000000    -0.337562   
O31      O      0.043230000000     0.521360000000     0.083180000000    -0.338955   
O32      O      0.950640000000     0.480590000000     0.967790000000    -0.409307   
O33      O      0.091390000000     0.515960000000     0.893510000000    -0.339447   
O34      O      0.100290000000     0.624830000000     0.985840000000    -0.338558   
O35      O      0.089570000000     0.492970000000     0.984870000000    -0.338845   
O36      O      0.983170000000     0.424640000000     0.899530000000    -0.33742    
O37      O      0.883060000000     0.485970000000     0.074720000000    -0.336613   
O38      O      0.025630000000     0.616410000000     0.104290000000    -0.337203   
O39      O      0.058140000000     0.560410000000     0.036040000000    -0.409725   
O40      O      0.037970000000     0.563540000000     0.950270000000    -0.411813   
O41      O      0.005080000000     0.610220000000     0.977650000000    -0.339002   
O42      O      0.018090000000     0.467320000000     0.868510000000    -0.340384   
O43      O      0.970660000000     0.568310000000     0.048390000000    -0.411593   
O44      O      0.965750000000     0.519570000000     0.920620000000    -0.338402   
O45      O      0.991110000000     0.573460000000     0.135430000000    -0.340204   
O46      O      0.944070000000     0.388560000000     0.974070000000    -0.339943   
O47      O      0.917830000000     0.524410000000     0.110780000000    -0.339683   
O48      O      0.125810000000     0.554940000000     0.929340000000    -0.33728    
O49      O      0.533570000000     0.475020000000     0.448980000000    -0.412304   
O50      O      0.473050000000     0.471610000000     0.551130000000    -0.410633   
O51      O      0.501420000000     0.428880000000     0.477910000000    -0.339861   
O52      O      0.589690000000     0.543260000000     0.480700000000    -0.338505   
O53      O      0.447090000000     0.652890000000     0.480580000000    -0.33911    
O54      O      0.596250000000     0.410880000000     0.479470000000    -0.3368     
O55      O      0.460810000000     0.521710000000     0.425080000000    -0.33874    
O56      O      0.559720000000     0.476440000000     0.533270000000    -0.409707   
O57      O      0.425750000000     0.516070000000     0.617470000000    -0.338851   
O58      O      0.414000000000     0.626670000000     0.527060000000    -0.336845   
O59      O      0.420360000000     0.494220000000     0.525880000000    -0.338211   
O60      O      0.529270000000     0.420770000000     0.602670000000    -0.339351   
O61      O      0.619970000000     0.481140000000     0.422210000000    -0.336979   
O62      O      0.480690000000     0.616400000000     0.403890000000    -0.33963    
O63      O      0.450410000000     0.560950000000     0.473300000000    -0.410064   
O64      O      0.476550000000     0.562410000000     0.557510000000    -0.412643   
O65      O      0.508860000000     0.608400000000     0.528520000000    -0.339956   
O66      O      0.499360000000     0.464830000000     0.636880000000    -0.340623   
O67      O      0.537100000000     0.565770000000     0.455160000000    -0.410759   
O68      O      0.549210000000     0.515670000000     0.581480000000    -0.338583   
O69      O      0.510490000000     0.572470000000     0.369420000000    -0.340226   
O70      O      0.563210000000     0.384520000000     0.525920000000    -0.338881   
O71      O      0.584070000000     0.520830000000     0.388570000000    -0.338942   
O72      O      0.390270000000     0.556620000000     0.584380000000    -0.337274   
O73      O      0.432770000000     0.030400000000     0.987580000000    -0.410663   
O74      O      0.505960000000     0.993510000000     0.075370000000    -0.411981   
O75      O      0.424730000000     0.017840000000     0.048160000000    -0.338181   
O76      O      0.485050000000     0.987330000000     0.923750000000    -0.339152   
O77      O      0.609210000000     0.112110000000     0.960940000000    -0.339049   
O78      O      0.383170000000     0.950420000000     0.993320000000    -0.339035   
O79      O      0.475180000000     0.109480000000     0.000520000000    -0.338598   
O80      O      0.473840000000     0.951440000000     0.004240000000    -0.413623   
O81      O      0.592330000000     0.988370000000     0.110380000000    -0.337102   
O82      O      0.624740000000     0.090280000000     0.017460000000    -0.340183   
O83      O      0.523210000000     0.053940000000     0.087300000000    -0.339673   
O84      O      0.480420000000     0.904160000000     0.083810000000    -0.338209   
O85      O      0.396560000000     0.993260000000     0.914350000000    -0.342359   
O86      O      0.527880000000     0.137180000000     0.926930000000    -0.338012   
O87      O      0.534300000000     0.089850000000     0.006660000000    -0.413323   
O88      O      0.575260000000     0.010830000000     0.023230000000    -0.410968   
O89      O      0.583590000000     0.023550000000     0.962720000000    -0.337935   
O90      O      0.541340000000     0.911220000000     0.096580000000    -0.338803   
O91      O      0.502300000000     0.047810000000     0.935500000000    -0.411152   
O92      O      0.532980000000     0.931830000000     0.010240000000    -0.338818   
O93      O      0.466990000000     0.129920000000     0.914030000000    -0.338403   
O94      O      0.399420000000     0.929340000000     0.049920000000    -0.340545   
O95      O      0.415690000000     0.052760000000     0.900420000000    -0.33689    
O96      O      0.611890000000     0.047670000000     0.096260000000    -0.342314   


