data_structure

_audit_creation_method RASPA-1.0
_audit_creation_date 2023-5-9
_audit_author_name 'Poobodin Mano'

_cell_length_a    36.089
_cell_length_b    34.9858
_cell_length_c    35.8785
_cell_angle_alpha 89.9988
_cell_angle_beta  90.0003
_cell_angle_gamma 89.9991
_cell_volume      45300.3

_symmetry_cell_setting          triclinic
_symmetry_space_group_name_Hall 'P 1'
_symmetry_space_group_name_H-M  'P 1'
_symmetry_Int_Tables_number     1

_symmetry_equiv_pos_as_xyz 'x,y,z'

loop_
_atom_site_label
_atom_site_type_symbol
_atom_site_fract_x
_atom_site_fract_y
_atom_site_fract_z
_atom_site_charge
C1       C      0.050040000000     0.998940000000     0.437880000000     0.355466   
C2       C      0.997810000000     0.149770000000     0.585030000000     0.331585   
C3       C      0.105030000000     0.032360000000     0.611850000000     0.331749   
C4       C      0.049040000000     0.084520000000     0.506430000000     0.357798   
C5       C      0.128240000000     0.933580000000     0.488860000000     0.333241   
C6       C      0.996850000000     0.879640000000     0.420530000000     0.33134    
C7       C      0.028650000000     0.963480000000     0.565230000000     0.357135   
C8       C      0.964850000000     0.065640000000     0.441200000000     0.357067   
C9       C      0.944770000000     0.944210000000     0.499750000000     0.357332   
C10      C      0.943970000000     0.030370000000     0.568670000000     0.356496   
C11      C      0.888120000000     0.996000000000     0.394970000000     0.331916   
C12      C      0.865490000000     0.095600000000     0.517610000000     0.33207    
C13      C      0.934140000000     0.501300000000     0.946800000000     0.356264   
C14      C      0.082150000000     0.649010000000     0.005560000000     0.330569   
C15      C      0.108870000000     0.532900000000     0.896040000000     0.330905   
C16      C      0.004110000000     0.586380000000     0.951020000000     0.356784   
C17      C      0.986300000000     0.435830000000     0.868850000000     0.332237   
C18      C      0.914090000000     0.381760000000     0.999390000000     0.330907   
C19      C      0.059670000000     0.463680000000     0.971330000000     0.356326   
C20      C      0.936710000000     0.567510000000     0.032910000000     0.356571   
C21      C      0.992030000000     0.444800000000     0.053670000000     0.358198   
C22      C      0.061950000000     0.529390000000     0.057580000000     0.355896   
C23      C      0.886910000000     0.498150000000     0.107950000000     0.332166   
C24      C      0.009250000000     0.594650000000     0.136150000000     0.332401   
C25      C      0.559760000000     0.504740000000     0.559830000000     0.356389   
C26      C      0.410120000000     0.646550000000     0.493910000000     0.331571   
C27      C      0.382160000000     0.531010000000     0.603020000000     0.331619   
C28      C      0.487570000000     0.587010000000     0.551640000000     0.35773    
C29      C      0.506530000000     0.439070000000     0.636870000000     0.332813   
C30      C      0.585380000000     0.384970000000     0.509810000000     0.33092    
C31      C      0.436720000000     0.462220000000     0.530990000000     0.356484   
C32      C      0.558630000000     0.569330000000     0.472590000000     0.356701   
C33      C      0.507750000000     0.444480000000     0.451960000000     0.357453   
C34      C      0.435540000000     0.526910000000     0.443710000000     0.356335   
C35      C      0.613080000000     0.500410000000     0.400590000000     0.332236   
C36      C      0.489190000000     0.592770000000     0.366650000000     0.332099   
C37      C      0.498020000000     0.926230000000     0.984950000000     0.357587   
C38      C      0.629330000000     0.099650000000     0.985180000000     0.331461   
C39      C      0.603790000000     0.008740000000     0.113300000000     0.33239    
C40      C      0.582770000000     0.993780000000     0.986610000000     0.355748   
C41      C      0.502180000000     0.885330000000     0.090500000000     0.331888   
C42      C      0.372180000000     0.927090000000     0.010320000000     0.332082   
C43      C      0.494870000000     0.017870000000     0.084000000000     0.355992   
C44      C      0.506790000000     0.009720000000     0.912660000000     0.357597   
C45      C      0.418200000000     0.033070000000     0.009660000000     0.357106   
C46      C      0.503460000000     0.100420000000     0.012250000000     0.358729   
C47      C      0.398070000000     0.018650000000     0.883050000000     0.333723   
C48      C      0.498300000000     0.142440000000     0.907480000000     0.333133   
C49      C      0.486040000000     0.614820000000     0.331570000000    -0.102109   
C50      C      0.458170000000     0.642530000000     0.327030000000     0.0205201  
C51      C      0.458240000000     0.666610000000     0.295890000000    -0.0688011  
C52      C      0.486540000000     0.663870000000     0.269160000000     0.0290023  
C53      C      0.513620000000     0.635370000000     0.272970000000    -0.0695408  
C54      C      0.513160000000     0.610820000000     0.303660000000     0.0206717  
C55      C      0.489490000000     0.692550000000     0.239030000000    -5.48252e-05
C56      C      0.459370000000     0.700170000000     0.215500000000    -0.0382459  
C57      C      0.461870000000     0.728770000000     0.188370000000    -0.0369972  
C58      C      0.494280000000     0.751000000000     0.184800000000    -0.000372232
C59      C      0.524520000000     0.742800000000     0.208280000000    -0.0368541  
C60      C      0.522250000000     0.713700000000     0.234820000000    -0.0380431  
C61      C      0.495970000000     0.783760000000     0.158170000000     0.0293598  
C62      C      0.464140000000     0.805750000000     0.150770000000    -0.0685706  
C63      C      0.466050000000     0.837870000000     0.127770000000     0.0217594  
C64      C      0.499950000000     0.849380000000     0.112110000000    -0.101734   
C65      C      0.531680000000     0.827210000000     0.118840000000     0.0221553  
C66      C      0.529640000000     0.794550000000     0.141260000000    -0.0686725  
C67      C      0.500140000000     0.178970000000     0.886830000000    -0.102439   
C68      C      0.468270000000     0.201280000000     0.881390000000     0.0227395  
C69      C      0.469880000000     0.234660000000     0.860000000000    -0.0689419  
C70      C      0.503240000000     0.246040000000     0.842860000000     0.0296191  
C71      C      0.535220000000     0.223890000000     0.848980000000    -0.0688818  
C72      C      0.533760000000     0.191020000000     0.870980000000     0.0221716  
C73      C      0.504370000000     0.279550000000     0.817150000000    -0.000389393
C74      C      0.473770000000     0.288130000000     0.794290000000    -0.0368927  
C75      C      0.475580000000     0.317820000000     0.768360000000    -0.03797    
C76      C      0.508210000000     0.339180000000     0.764170000000    -0.000103628
C77      C      0.538640000000     0.331240000000     0.787190000000    -0.0381749  
C78      C      0.536610000000     0.302040000000     0.813720000000    -0.0370218  
C79      C      0.510800000000     0.368160000000     0.734310000000     0.0291877  
C80      C      0.483440000000     0.396410000000     0.730820000000    -0.0696425  
C81      C      0.483370000000     0.420980000000     0.700140000000     0.0208521  
C82      C      0.510250000000     0.417200000000     0.671970000000    -0.102563   
C83      C      0.538450000000     0.389820000000     0.676250000000     0.0208863  
C84      C      0.538900000000     0.365730000000     0.707350000000    -0.0689852  
C85      C      0.665300000000     0.120180000000     0.984040000000    -0.100929   
C86      C      0.672680000000     0.147030000000     0.955850000000     0.0202186  
C87      C      0.704470000000     0.169830000000     0.957370000000    -0.0682178  
C88      C      0.729780000000     0.166170000000     0.986990000000     0.0286658  
C89      C      0.723270000000     0.138030000000     0.014190000000    -0.0682516  
C90      C      0.691390000000     0.115380000000     0.012800000000     0.0197054  
C91      C      0.761440000000     0.193220000000     0.990690000000     1.76587e-05
C92      C      0.780820000000     0.206090000000     0.959090000000    -0.037537   
C93      C      0.808340000000     0.234030000000     0.962360000000    -0.0373827  
C94      C      0.817260000000     0.249710000000     0.997350000000    -1.32423e-05
C95      C      0.798780000000     0.235860000000     0.029090000000    -0.0375484  
C96      C      0.771180000000     0.208060000000     0.025800000000    -0.0372638  
C97      C      0.844130000000     0.281870000000     0.000360000000     0.0287743  
C98      C      0.876100000000     0.282970000000     0.977990000000    -0.0686203  
C99      C      0.899550000000     0.314800000000     0.978610000000     0.0204726  
C100     C      0.891620000000     0.346280000000     0.001680000000    -0.100498   
C101     C      0.860420000000     0.344520000000     0.025110000000     0.019625   
C102     C      0.836940000000     0.312780000000     0.024380000000    -0.0680799  
C103     C      0.105060000000     0.684040000000     0.003820000000    -0.101335   
C104     C      0.123610000000     0.694120000000     0.970870000000     0.0205149  
C105     C      0.148190000000     0.725000000000     0.970390000000    -0.0680245  
C106     C      0.155520000000     0.746000000000     0.003090000000     0.0286429  
C107     C      0.135970000000     0.736500000000     0.035750000000    -0.0680959  
C108     C      0.110800000000     0.706140000000     0.036010000000     0.0202259  
C109     C      0.184810000000     0.776170000000     0.003630000000    -0.000147202
C110     C      0.216870000000     0.772200000000     0.981600000000    -0.037105   
C111     C      0.245000000000     0.799520000000     0.982910000000    -0.0378817  
C112     C      0.242190000000     0.831160000000     0.006750000000    -0.000141413
C113     C      0.210440000000     0.835350000000     0.028920000000    -0.0380416  
C114     C      0.181850000000     0.808360000000     0.027100000000    -0.0371727  
C115     C      0.272850000000     0.859170000000     0.008570000000     0.0292851  
C116     C      0.286820000000     0.875290000000     0.975670000000    -0.0692537  
C117     C      0.318030000000     0.898800000000     0.976620000000     0.0206874  
C118     C      0.336410000000     0.906200000000     0.010470000000    -0.101145   
C119     C      0.321650000000     0.891030000000     0.043620000000     0.0213414  
C120     C      0.289930000000     0.867960000000     0.042700000000    -0.0690432  
C121     C      0.138140000000     0.531120000000     0.867030000000    -0.100716   
C122     C      0.168890000000     0.555800000000     0.868060000000     0.0197109  
C123     C      0.195180000000     0.555280000000     0.839360000000    -0.0684443  
C124     C      0.191450000000     0.529860000000     0.809210000000     0.0286149  
C125     C      0.161070000000     0.504790000000     0.808540000000    -0.0684734  
C126     C      0.134720000000     0.505460000000     0.837010000000     0.0196949  
C127     C      0.218820000000     0.529630000000     0.778270000000    -0.000188456
C128     C      0.231800000000     0.564060000000     0.762860000000    -0.0376599  
C129     C      0.256960000000     0.563720000000     0.733190000000    -0.0376208  
C130     C      0.269900000000     0.528940000000     0.718510000000    -0.00026104 
C131     C      0.256950000000     0.494530000000     0.733970000000    -0.0376171  
C132     C      0.231640000000     0.494860000000     0.763430000000    -0.0376984  
C133     C      0.297600000000     0.528490000000     0.687860000000     0.0287583  
C134     C      0.294320000000     0.553360000000     0.657230000000    -0.0687219  
C135     C      0.321170000000     0.553550000000     0.629060000000     0.0200044  
C136     C      0.352050000000     0.529100000000     0.631130000000    -0.10125    
C137     C      0.354930000000     0.503860000000     0.661520000000     0.0200941  
C138     C      0.328020000000     0.503500000000     0.689460000000    -0.0686795  
C139     C      0.857690000000     0.499640000000     0.137000000000    -0.101459   
C140     C      0.825430000000     0.477300000000     0.134070000000     0.0203995  
C141     C      0.799050000000     0.477360000000     0.162670000000    -0.0686601  
C142     C      0.804350000000     0.499760000000     0.194800000000     0.0288502  
C143     C      0.836260000000     0.522590000000     0.197370000000    -0.068675   
C144     C      0.862580000000     0.522530000000     0.168880000000     0.0200555  
C145     C      0.776870000000     0.499320000000     0.225670000000    -0.000205162
C146     C      0.738680000000     0.499440000000     0.218050000000    -0.0375794  
C147     C      0.712910000000     0.499870000000     0.247110000000    -0.0375431  
C148     C      0.724700000000     0.500200000000     0.284490000000    -0.000217568
C149     C      0.762880000000     0.499620000000     0.292120000000    -0.0376377  
C150     C      0.788660000000     0.499210000000     0.263050000000    -0.0375651  
C151     C      0.697160000000     0.501470000000     0.315290000000     0.0288998  
C152     C      0.665620000000     0.524780000000     0.312320000000    -0.0688405  
C153     C      0.638910000000     0.525060000000     0.340440000000     0.0201827  
C154     C      0.643050000000     0.502050000000     0.372340000000    -0.101615   
C155     C      0.675100000000     0.479450000000     0.375820000000     0.0203326  
C156     C      0.701860000000     0.479160000000     0.347580000000    -0.0687217  
C157     C      0.608900000000     0.350200000000     0.508310000000    -0.100637   
C158     C      0.603610000000     0.320110000000     0.533820000000     0.0201806  
C159     C      0.628350000000     0.289340000000     0.535020000000    -0.0684898  
C160     C      0.658920000000     0.288030000000     0.510800000000     0.0287443  
C161     C      0.663250000000     0.317220000000     0.484230000000    -0.0685049  
C162     C      0.638550000000     0.347910000000     0.482970000000     0.0195745  
C163     C      0.687430000000     0.257640000000     0.514530000000    -0.000135489
C164     C      0.677400000000     0.219250000000     0.520320000000    -0.0376658  
C165     C      0.704660000000     0.191000000000     0.524060000000    -0.0376403  
C166     C      0.742440000000     0.200690000000     0.522450000000    -0.000230548
C167     C      0.752340000000     0.239110000000     0.516840000000    -0.0374523  
C168     C      0.725210000000     0.267200000000     0.512930000000    -0.0375996  
C169     C      0.771780000000     0.171050000000     0.525460000000     0.0288299  
C170     C      0.768800000000     0.136370000000     0.505900000000    -0.068639   
C171     C      0.798560000000     0.110730000000     0.504930000000     0.0203118  
C172     C      0.831900000000     0.119290000000     0.523500000000    -0.101405   
C173     C      0.833940000000     0.152920000000     0.544880000000     0.019918   
C174     C      0.804240000000     0.178460000000     0.545850000000    -0.0687575  
C175     C      0.386590000000     0.681280000000     0.495550000000    -0.1011     
C176     C      0.391470000000     0.711230000000     0.469810000000     0.020404   
C177     C      0.366580000000     0.741860000000     0.468720000000    -0.0686579  
C178     C      0.336280000000     0.743140000000     0.493280000000     0.0288766  
C179     C      0.332420000000     0.714150000000     0.520110000000    -0.0687594  
C180     C      0.357260000000     0.683610000000     0.521260000000     0.019862   
C181     C      0.307520000000     0.773240000000     0.489630000000    -0.000226296
C182     C      0.317200000000     0.811690000000     0.483670000000    -0.0376854  
C183     C      0.289680000000     0.839680000000     0.480150000000    -0.0376565  
C184     C      0.252000000000     0.829640000000     0.482140000000    -0.000322972
C185     C      0.242460000000     0.791140000000     0.487840000000    -0.0375735  
C186     C      0.269860000000     0.763320000000     0.491530000000    -0.0376021  
C187     C      0.222420000000     0.859010000000     0.479570000000     0.0289324  
C188     C      0.225320000000     0.893560000000     0.499330000000    -0.0688108  
C189     C      0.195360000000     0.918900000000     0.500810000000     0.0205352  
C190     C      0.161890000000     0.910140000000     0.482560000000    -0.102146   
C191     C      0.159890000000     0.876650000000     0.460990000000     0.020185   
C192     C      0.189800000000     0.851410000000     0.459510000000    -0.0690226  
C193     C      0.134040000000     0.030480000000     0.640890000000    -0.1023     
C194     C      0.139300000000     0.060910000000     0.665920000000     0.020828   
C195     C      0.168490000000     0.060050000000     0.691570000000    -0.0693301  
C196     C      0.192370000000     0.028380000000     0.693150000000     0.0292276  
C197     C      0.186540000000     0.997570000000     0.668820000000    -0.0692114  
C198     C      0.157890000000     0.998750000000     0.642700000000     0.0212317  
C199     C      0.223680000000     0.027560000000     0.719730000000    -0.000121054
C200     C      0.249240000000     0.057750000000     0.720940000000    -0.0379704  
C201     C      0.279490000000     0.056370000000     0.745260000000    -0.0371148  
C202     C      0.284450000000     0.025020000000     0.769390000000    -0.000343909
C203     C      0.258410000000     0.995040000000     0.768300000000    -0.0369519  
C204     C      0.228600000000     0.996140000000     0.743500000000    -0.0380963  
C205     C      0.316070000000     0.023830000000     0.796170000000     0.0296108  
C206     C      0.329160000000     0.057500000000     0.813180000000    -0.0687294  
C207     C      0.357150000000     0.056010000000     0.840090000000     0.0220099  
C208     C      0.372240000000     0.020770000000     0.851120000000    -0.102525   
C209     C      0.360050000000     0.987250000000     0.833430000000     0.0230122  
C210     C      0.332610000000     0.988790000000     0.806020000000    -0.0691316  
C211     C      0.858420000000     0.997230000000     0.366420000000    -0.101409   
C212     C      0.824710000000     0.015770000000     0.374250000000     0.0204659  
C213     C      0.796110000000     0.016240000000     0.348100000000    -0.0687086  
C214     C      0.800480000000     0.998400000000     0.313290000000     0.0290536  
C215     C      0.834200000000     0.979940000000     0.305320000000    -0.0686876  
C216     C      0.862850000000     0.979310000000     0.331620000000     0.0207926  
C217     C      0.769960000000     0.999410000000     0.285460000000    -0.000167809
C218     C      0.761730000000     0.967210000000     0.263500000000    -0.0374455  
C219     C      0.733070000000     0.968420000000     0.237280000000    -0.0374828  
C220     C      0.711980000000     0.001850000000     0.232450000000    -2.42797e-05
C221     C      0.719950000000     0.033860000000     0.254720000000    -0.0375275  
C222     C      0.748630000000     0.032700000000     0.280790000000    -0.0373777  
C223     C      0.682740000000     0.003950000000     0.203320000000     0.0289798  
C224     C      0.659070000000     0.972800000000     0.196370000000    -0.0683219  
C225     C      0.632670000000     0.974560000000     0.167820000000     0.0197699  
C226     C      0.629440000000     0.007510000000     0.145590000000    -0.101386   
C227     C      0.652620000000     0.038900000000     0.153160000000     0.0210568  
C228     C      0.678940000000     0.037100000000     0.181550000000    -0.0689286  
C229     C      0.013300000000     0.617270000000     0.170900000000    -0.101643   
C230     C      0.034610000000     0.650930000000     0.171340000000     0.0199153  
C231     C      0.034420000000     0.674900000000     0.202520000000    -0.0686425  
C232     C      0.012780000000     0.665850000000     0.233890000000     0.0288921  
C233     C      0.992740000000     0.631440000000     0.234100000000    -0.0691224  
C234     C      0.993100000000     0.607340000000     0.203040000000     0.0205082  
C235     C      0.009490000000     0.693300000000     0.265300000000    -0.000338533
C236     C      0.040850000000     0.712520000000     0.278990000000    -0.0377333  
C237     C      0.037290000000     0.740130000000     0.306910000000    -0.037599   
C238     C      0.002260000000     0.749330000000     0.321590000000    -0.000248253
C239     C      0.970990000000     0.729630000000     0.308370000000    -0.0377934  
C240     C      0.974580000000     0.701820000000     0.280620000000    -0.0375066  
C241     C      0.998370000000     0.780550000000     0.349370000000     0.0287792  
C242     C      0.970370000000     0.808210000000     0.345510000000    -0.0683266  
C243     C      0.968870000000     0.839660000000     0.369540000000     0.0194504  
C244     C      0.995280000000     0.844040000000     0.398070000000    -0.100883   
C245     C      0.022230000000     0.815380000000     0.402920000000     0.0204014  
C246     C      0.023820000000     0.784090000000     0.378780000000    -0.0690182  
C247     C      0.000460000000     0.185220000000     0.607590000000    -0.101152   
C248     C      0.974700000000     0.215040000000     0.602830000000     0.0204668  
C249     C      0.973900000000     0.245920000000     0.627580000000    -0.0687541  
C250     C      0.998800000000     0.247610000000     0.657640000000     0.0288232  
C251     C      0.025850000000     0.218930000000     0.661160000000    -0.0687192  
C252     C      0.026710000000     0.188120000000     0.636430000000     0.0197223  
C253     C      0.994940000000     0.277490000000     0.686780000000    -0.000273717
C254     C      0.987980000000     0.315850000000     0.677370000000    -0.0376904  
C255     C      0.983560000000     0.343480000000     0.705280000000    -0.0377727  
C256     C      0.985610000000     0.333150000000     0.743100000000    -0.000276558
C257     C      0.992530000000     0.294790000000     0.752380000000    -0.0375476  
C258     C      0.997160000000     0.267340000000     0.724600000000    -0.0375746  
C259     C      0.981530000000     0.362060000000     0.773130000000     0.0287828  
C260     C      0.961170000000     0.353400000000     0.805420000000    -0.068765   
C261     C      0.961080000000     0.378360000000     0.835760000000     0.0197791  
C262     C      0.981420000000     0.412640000000     0.834570000000    -0.101418   
C263     C      0.999990000000     0.422380000000     0.801390000000     0.0202829  
C264     C      0.000030000000     0.397340000000     0.770970000000    -0.068744   
H1       H      0.017440000000     0.935430000000     0.570950000000    -0.0615583  
H2       H      0.921460000000     0.941360000000     0.518460000000    -0.0619962  
H3       H      0.976000000000     0.093720000000     0.435540000000    -0.0616732  
H4       H      0.948190000000     0.017600000000     0.595780000000    -0.0610764  
H5       H      0.072330000000     0.087230000000     0.487670000000    -0.0616216  
H6       H      0.045980000000     0.011820000000     0.410800000000    -0.0606517  
H7       H      0.064610000000     0.435420000000     0.982460000000    -0.061265   
H8       H      0.009890000000     0.441470000000     0.077650000000    -0.062084   
H9       H      0.931950000000     0.595790000000     0.021750000000    -0.0610152  
H10      H      0.088730000000     0.516040000000     0.053970000000    -0.0605579  
H11      H      0.986140000000     0.590070000000     0.927180000000    -0.061467   
H12      H      0.907310000000     0.514540000000     0.950400000000    -0.0612424  
H13      H      0.433190000000     0.433610000000     0.520160000000    -0.0611141  
H14      H      0.490880000000     0.440070000000     0.427440000000    -0.0617086  
H15      H      0.562180000000     0.597930000000     0.483420000000    -0.0611587  
H16      H      0.409020000000     0.512800000000     0.446440000000    -0.0611364  
H17      H      0.504470000000     0.591420000000     0.576140000000    -0.0616959  
H18      H      0.586250000000     0.518890000000     0.557090000000    -0.0611246  
H19      H      0.468660000000     0.023200000000     0.097640000000    -0.0613001  
H20      H      0.408960000000     0.062140000000     0.013910000000    -0.0619792  
H21      H      0.533150000000     0.004810000000     0.899160000000    -0.0621087  
H22      H      0.503590000000     0.111870000000     0.040230000000    -0.0621092  
H23      H      0.591900000000     0.964710000000     0.982110000000    -0.0606342  
H24      H      0.498070000000     0.914480000000     0.957080000000    -0.0623423  
H25      H      0.436880000000     0.646270000000     0.347990000000     0.0342712  
H26      H      0.437150000000     0.688530000000     0.293570000000     0.0470076  
H27      H      0.535610000000     0.632660000000     0.252590000000     0.0466336  
H28      H      0.535130000000     0.589900000000     0.306350000000     0.0335419  
H29      H      0.433920000000     0.683980000000     0.218110000000     0.0388087  
H30      H      0.438260000000     0.733500000000     0.170350000000     0.0376821  
H31      H      0.549670000000     0.759630000000     0.207130000000     0.0375041  
H32      H      0.545710000000     0.708610000000     0.253000000000     0.0387179  
H33      H      0.437840000000     0.799050000000     0.163710000000     0.0458669  
H34      H      0.441110000000     0.854520000000     0.123400000000     0.0319724  
H35      H      0.558130000000     0.835160000000     0.106860000000     0.0313537  
H36      H      0.554600000000     0.777960000000     0.145490000000     0.0458725  
H37      H      0.442040000000     0.192920000000     0.893610000000     0.031211   
H38      H      0.444830000000     0.251340000000     0.856730000000     0.0459426  
H39      H      0.561280000000     0.231080000000     0.835800000000     0.0458204  
H40      H      0.558780000000     0.174280000000     0.874410000000     0.0315389  
H41      H      0.448730000000     0.271140000000     0.795360000000     0.0375569  
H42      H      0.451900000000     0.323140000000     0.750540000000     0.0386063  
H43      H      0.564010000000     0.347580000000     0.784570000000     0.0387499  
H44      H      0.560470000000     0.296960000000     0.831310000000     0.037579   
H45      H      0.461590000000     0.398860000000     0.751390000000     0.0467148  
H46      H      0.461180000000     0.441660000000     0.697650000000     0.0336242  
H47      H      0.559580000000     0.386290000000     0.655080000000     0.0342926  
H48      H      0.560180000000     0.343980000000     0.709420000000     0.0470884  
H49      H      0.653190000000     0.151600000000     0.933320000000     0.0340758  
H50      H      0.708310000000     0.191460000000     0.936130000000     0.0460074  
H51      H      0.742530000000     0.133880000000     0.036980000000     0.0461472  
H52      H      0.686810000000     0.094720000000     0.034810000000     0.0351923  
H53      H      0.774400000000     0.194950000000     0.931680000000     0.0377733  
H54      H      0.821730000000     0.244230000000     0.937250000000     0.0378237  
H55      H      0.805280000000     0.246900000000     0.056520000000     0.037962   
H56      H      0.756630000000     0.199170000000     0.050730000000     0.037802   
H57      H      0.882820000000     0.259400000000     0.959640000000     0.0459601  
H58      H      0.923450000000     0.315020000000     0.960360000000     0.0332972  
H59      H      0.853360000000     0.368200000000     0.043210000000     0.0346087  
H60      H      0.812350000000     0.313170000000     0.041680000000     0.0460747  
H61      H      0.119450000000     0.677850000000     0.945520000000     0.0338249  
H62      H      0.161820000000     0.732000000000     0.944390000000     0.0457271  
H63      H      0.141090000000     0.751450000000     0.061660000000     0.0454899  
H64      H      0.097130000000     0.698900000000     0.061950000000     0.033616   
H65      H      0.220840000000     0.747470000000     0.963920000000     0.0375171  
H66      H      0.269490000000     0.795420000000     0.965890000000     0.0386417  
H67      H      0.207590000000     0.859720000000     0.047340000000     0.0386761  
H68      H      0.157420000000     0.812880000000     0.044040000000     0.0375024  
H69      H      0.273940000000     0.869110000000     0.949060000000     0.0468564  
H70      H      0.328530000000     0.909940000000     0.950510000000     0.0339838  
H71      H      0.335050000000     0.896260000000     0.070150000000     0.0323163  
H72      H      0.279680000000     0.855700000000     0.068430000000     0.0468419  
H73      H      0.172380000000     0.575940000000     0.890710000000     0.0338979  
H74      H      0.218540000000     0.574660000000     0.840840000000     0.0461411  
H75      H      0.157200000000     0.485140000000     0.785540000000     0.0462612  
H76      H      0.111440000000     0.486000000000     0.835240000000     0.0355174  
H77      H      0.222140000000     0.591300000000     0.773420000000     0.0378966  
H78      H      0.266720000000     0.590710000000     0.722130000000     0.037952   
H79      H      0.266200000000     0.467260000000     0.723100000000     0.0379294  
H80      H      0.222380000000     0.467850000000     0.774870000000     0.0380819  
H81      H      0.270960000000     0.572660000000     0.655040000000     0.0460548  
H82      H      0.318090000000     0.573380000000     0.606090000000     0.0333456  
H83      H      0.378280000000     0.484570000000     0.664070000000     0.0348919  
H84      H      0.331540000000     0.484260000000     0.712850000000     0.0460952  
H85      H      0.820800000000     0.459250000000     0.109990000000     0.0334697  
H86      H      0.774890000000     0.459210000000     0.159950000000     0.0460873  
H87      H      0.840860000000     0.540730000000     0.221400000000     0.0459518  
H88      H      0.886950000000     0.540310000000     0.172070000000     0.0351034  
H89      H      0.728660000000     0.499820000000     0.189600000000     0.0379265  
H90      H      0.683680000000     0.499770000000     0.240270000000     0.0378972  
H91      H      0.772890000000     0.500100000000     0.320570000000     0.0377686  
H92      H      0.817890000000     0.498610000000     0.269880000000     0.0377211  
H93      H      0.661510000000     0.542900000000     0.288200000000     0.0459978  
H94      H      0.614770000000     0.543080000000     0.336870000000     0.0348539  
H95      H      0.679150000000     0.461310000000     0.399940000000     0.0333457  
H96      H      0.725750000000     0.460690000000     0.350610000000     0.045983   
H97      H      0.581050000000     0.320850000000     0.553710000000     0.0341535  
H98      H      0.624370000000     0.267380000000     0.555920000000     0.0463239  
H99      H      0.686150000000     0.316650000000     0.464720000000     0.0462111  
H100     H      0.643350000000     0.370320000000     0.462720000000     0.034994   
H101     H      0.648500000000     0.210990000000     0.521530000000     0.0381042  
H102     H      0.696180000000     0.161650000000     0.528480000000     0.0380087  
H103     H      0.781180000000     0.247480000000     0.514900000000     0.0378618  
H104     H      0.733880000000     0.296570000000     0.509040000000     0.0379007  
H105     H      0.744190000000     0.129890000000     0.489820000000     0.0461415  
H106     H      0.795970000000     0.085090000000     0.488230000000     0.0336204  
H107     H      0.858980000000     0.160280000000     0.559900000000     0.0350654  
H108     H      0.807070000000     0.204550000000     0.561850000000     0.0462241  
H109     H      0.413790000000     0.710450000000     0.449650000000     0.0341218  
H110     H      0.370200000000     0.763700000000     0.447630000000     0.046341   
H111     H      0.309740000000     0.714740000000     0.539880000000     0.0461368  
H112     H      0.352800000000     0.661300000000     0.541710000000     0.0348452  
H113     H      0.346020000000     0.820200000000     0.482210000000     0.0381142  
H114     H      0.297860000000     0.869110000000     0.475660000000     0.0380524  
H115     H      0.213720000000     0.782520000000     0.490060000000     0.0377876  
H116     H      0.261470000000     0.733870000000     0.495550000000     0.0378553  
H117     H      0.250050000000     0.900170000000     0.515170000000     0.0464112  
H118     H      0.197920000000     0.944470000000     0.517630000000     0.0342108  
H119     H      0.134750000000     0.869160000000     0.446200000000     0.0347087  
H120     H      0.187030000000     0.825380000000     0.443390000000     0.0459973  
H121     H      0.121480000000     0.085820000000     0.665040000000     0.0327938  
H122     H      0.172380000000     0.084040000000     0.710250000000     0.0467088  
H123     H      0.204700000000     0.972910000000     0.669450000000     0.0470235  
H124     H      0.154460000000     0.974830000000     0.623840000000     0.0343336  
H125     H      0.246220000000     0.082090000000     0.702510000000     0.0385912  
H126     H      0.299180000000     0.079700000000     0.744740000000     0.0376112  
H127     H      0.260610000000     0.970860000000     0.786990000000     0.0376424  
H128     H      0.209030000000     0.972660000000     0.743260000000     0.0387339  
H129     H      0.316910000000     0.084970000000     0.806820000000     0.0459191  
H130     H      0.365730000000     0.082320000000     0.853450000000     0.0315172  
H131     H      0.371430000000     0.959690000000     0.841110000000     0.03089    
H132     H      0.324110000000     0.962360000000     0.792870000000     0.0459182  
H133     H      0.820100000000     0.029680000000     0.400820000000     0.0345976  
H134     H      0.770330000000     0.030180000000     0.355430000000     0.0461345  
H135     H      0.838660000000     0.966340000000     0.278580000000     0.0461813  
H136     H      0.888450000000     0.964820000000     0.324630000000     0.0331491  
H137     H      0.777310000000     0.940960000000     0.266700000000     0.0378227  
H138     H      0.727930000000     0.943380000000     0.220300000000     0.0378527  
H139     H      0.704000000000     0.059940000000     0.252030000000     0.0379146  
H140     H      0.754410000000     0.058170000000     0.296930000000     0.0379898  
H141     H      0.660960000000     0.947020000000     0.212980000000     0.0462697  
H142     H      0.615250000000     0.949880000000     0.162830000000     0.034824   
H143     H      0.651090000000     0.064740000000     0.136600000000     0.0337423  
H144     H      0.697040000000     0.061420000000     0.185730000000     0.0460753  
H145     H      0.050550000000     0.659470000000     0.147150000000     0.034395   
H146     H      0.049990000000     0.701340000000     0.201420000000     0.0461686  
H147     H      0.976230000000     0.623450000000     0.258080000000     0.0460673  
H148     H      0.976420000000     0.581620000000     0.203790000000     0.0336944  
H149     H      0.068130000000     0.706400000000     0.267900000000     0.0379235  
H150     H      0.061880000000     0.755070000000     0.316250000000     0.0379718  
H151     H      0.943690000000     0.735910000000     0.319310000000     0.0380903  
H152     H      0.949840000000     0.687780000000     0.270390000000     0.0380009  
H153     H      0.950490000000     0.806400000000     0.322970000000     0.0463175  
H154     H      0.947710000000     0.861110000000     0.364980000000     0.0349057  
H155     H      0.042950000000     0.817640000000     0.424640000000     0.0337408  
H156     H      0.045360000000     0.762930000000     0.382790000000     0.0460248  
H157     H      0.954120000000     0.213840000000     0.580880000000     0.0335565  
H158     H      0.952650000000     0.267510000000     0.624210000000     0.0460814  
H159     H      0.045870000000     0.219840000000     0.683640000000     0.0461339  
H160     H      0.047190000000     0.165940000000     0.640790000000     0.0346701  
H161     H      0.986240000000     0.324540000000     0.648440000000     0.0378646  
H162     H      0.978170000000     0.372810000000     0.697290000000     0.0379614  
H163     H      0.994830000000     0.285990000000     0.781240000000     0.0379179  
H164     H      0.001950000000     0.237960000000     0.732810000000     0.0380277  
H165     H      0.946000000000     0.326770000000     0.807600000000     0.0461681  
H166     H      0.946120000000     0.370060000000     0.860650000000     0.0350348  
H167     H      0.015890000000     0.448560000000     0.799430000000     0.0337473  
H168     H      0.016040000000     0.404780000000     0.746490000000     0.0461641  
Mg1      Mg     0.903800000000     0.016970000000     0.485780000000     0.788509   
Mg2      Mg     0.972840000000     0.973200000000     0.419340000000     0.78369    
Mg3      Mg     0.021050000000     0.056050000000     0.586800000000     0.785755   
Mg4      Mg     0.034910000000     0.926150000000     0.490250000000     0.789955   
Mg5      Mg     0.958890000000     0.103080000000     0.515970000000     0.78861    
Mg6      Mg     0.089910000000     0.011730000000     0.521070000000     0.788726   
Mg7      Mg     0.977980000000     0.517230000000     0.095120000000     0.78992    
Mg8      Mg     0.913430000000     0.475470000000     0.023450000000     0.784673   
Mg9      Mg     0.082500000000     0.555800000000     0.980600000000     0.783457   
Mg10     Mg     0.984850000000     0.427400000000     0.962710000000     0.788078   
Mg11     Mg     0.011700000000     0.603460000000     0.042350000000     0.786772   
Mg12     Mg     0.017910000000     0.513530000000     0.909180000000     0.788654   
Mg13     Mg     0.521180000000     0.516930000000     0.409810000000     0.790806   
Mg14     Mg     0.584130000000     0.478230000000     0.484350000000     0.784748   
Mg15     Mg     0.411220000000     0.553300000000     0.519280000000     0.784881   
Mg16     Mg     0.512350000000     0.428810000000     0.543500000000     0.786944   
Mg17     Mg     0.483040000000     0.602780000000     0.460060000000     0.786707   
Mg18     Mg     0.474100000000     0.514620000000     0.593790000000     0.790725   
Mg19     Mg     0.448330000000     0.072840000000     0.942740000000     0.786113   
Mg20     Mg     0.433780000000     0.966030000000     0.950160000000     0.790827   
Mg21     Mg     0.568360000000     0.060710000000     0.045860000000     0.790946   
Mg22     Mg     0.447840000000     0.954810000000     0.053780000000     0.785996   
Mg23     Mg     0.553070000000     0.072610000000     0.942850000000     0.7875     
Mg24     Mg     0.552700000000     0.954340000000     0.054610000000     0.783637   
O1       O      0.943850000000     0.970060000000     0.475010000000    -0.410365   
O2       O      0.045520000000     0.968940000000     0.534690000000    -0.411532   
O3       O      0.973830000000     0.925210000000     0.506910000000    -0.339284   
O4       O      0.973560000000     0.038580000000     0.419350000000    -0.338055   
O5       O      0.972210000000     0.147030000000     0.560640000000    -0.329714   
O6       O      0.975270000000     0.907380000000     0.412160000000    -0.32657    
O7       O      0.919560000000     0.015810000000     0.547540000000    -0.338514   
O8       O      0.027190000000     0.973740000000     0.448800000000    -0.40902    
O9       O      0.110150000000     0.013560000000     0.581770000000    -0.329037   
O10      O      0.018950000000     0.121660000000     0.593270000000    -0.327978   
O11      O      0.020170000000     0.990590000000     0.587140000000    -0.338082   
O12      O      0.097140000000     0.920530000000     0.477600000000    -0.329873   
O13      O      0.917130000000     0.975930000000     0.389100000000    -0.327367   
O14      O      0.896640000000     0.108870000000     0.528570000000    -0.329078   
O15      O      0.966680000000     0.055590000000     0.557550000000    -0.4098     
O16      O      0.050000000000     0.058850000000     0.531350000000    -0.411594   
O17      O      0.020000000000     0.103560000000     0.499230000000    -0.339051   
O18      O      0.130650000000     0.963900000000     0.508450000000    -0.330321   
O19      O      0.947920000000     0.060110000000     0.471700000000    -0.41034    
O20      O      0.074510000000     0.013250000000     0.459140000000    -0.33766    
O21      O      0.863020000000     0.064950000000     0.498480000000    -0.329339   
O22      O      0.022000000000     0.882700000000     0.445330000000    -0.330882   
O23      O      0.882850000000     0.013940000000     0.425530000000    -0.330102   
O24      O      0.076770000000     0.053720000000     0.616900000000    -0.328059   
O25      O      0.967820000000     0.471040000000     0.054060000000    -0.4116     
O26      O      0.029890000000     0.469780000000     0.953530000000    -0.410034   
O27      O      0.999690000000     0.425870000000     0.024550000000    -0.33945    
O28      O      0.914790000000     0.540920000000     0.023220000000    -0.337733   
O29      O      0.057870000000     0.646090000000     0.031250000000    -0.329278   
O30      O      0.905550000000     0.409970000000     0.020400000000    -0.327325   
O31      O      0.039890000000     0.514970000000     0.081280000000    -0.338266   
O32      O      0.944070000000     0.475620000000     0.969680000000    -0.409623   
O33      O      0.078540000000     0.515150000000     0.889970000000    -0.32968    
O34      O      0.089720000000     0.621520000000     0.983290000000    -0.326249   
O35      O      0.081600000000     0.490330000000     0.980820000000    -0.337485   
O36      O      0.974180000000     0.422350000000     0.899630000000    -0.329112   
O37      O      0.881760000000     0.478200000000     0.078590000000    -0.327977   
O38      O      0.022100000000     0.608360000000     0.105740000000    -0.327776   
O39      O      0.052130000000     0.555180000000     0.034780000000    -0.409188   
O40      O      0.028040000000     0.559860000000     0.950330000000    -0.410626   
O41      O      0.996960000000     0.605360000000     0.980290000000    -0.338148   
O42      O      0.005740000000     0.466260000000     0.867360000000    -0.329711   
O43      O      0.966280000000     0.561310000000     0.051020000000    -0.410039   
O44      O      0.956120000000     0.515780000000     0.923070000000    -0.338549   
O45      O      0.989850000000     0.564210000000     0.136950000000    -0.331275   
O46      O      0.939330000000     0.384120000000     0.974560000000    -0.328995   
O47      O      0.917390000000     0.515540000000     0.114260000000    -0.330153   
O48      O      0.113900000000     0.553280000000     0.925160000000    -0.326806   
O49      O      0.531010000000     0.471640000000     0.451970000000    -0.411125   
O50      O      0.465500000000     0.469680000000     0.549940000000    -0.410432   
O51      O      0.499840000000     0.425660000000     0.481110000000    -0.338557   
O52      O      0.580980000000     0.543620000000     0.483450000000    -0.337908   
O53      O      0.435770000000     0.644640000000     0.469480000000    -0.329041   
O54      O      0.593480000000     0.413100000000     0.488530000000    -0.327802   
O55      O      0.458900000000     0.512870000000     0.421100000000    -0.33867    
O56      O      0.551610000000     0.478360000000     0.537010000000    -0.40986    
O57      O      0.412770000000     0.514420000000     0.610570000000    -0.330057   
O58      O      0.402030000000     0.618390000000     0.515140000000    -0.328308   
O59      O      0.414340000000     0.487910000000     0.520160000000    -0.337983   
O60      O      0.521120000000     0.425460000000     0.607230000000    -0.327658   
O61      O      0.617700000000     0.480910000000     0.430330000000    -0.328025   
O62      O      0.474460000000     0.606400000000     0.396230000000    -0.32702    
O63      O      0.443750000000     0.553230000000     0.466570000000    -0.40964    
O64      O      0.464250000000     0.559910000000     0.551680000000    -0.411587   
O65      O      0.495510000000     0.605790000000     0.522470000000    -0.338504   
O66      O      0.485730000000     0.468520000000     0.636520000000    -0.331493   
O67      O      0.529870000000     0.561890000000     0.453610000000    -0.410487   
O68      O      0.536370000000     0.518770000000     0.582430000000    -0.338438   
O69      O      0.509750000000     0.563140000000     0.367100000000    -0.331219   
O70      O      0.559650000000     0.386930000000     0.534160000000    -0.328748   
O71      O      0.582430000000     0.516910000000     0.393030000000    -0.330601   
O72      O      0.377620000000     0.550650000000     0.573360000000    -0.327668   
O73      O      0.430820000000     0.023760000000     0.977940000000    -0.409845   
O74      O      0.499720000000     0.986010000000     0.067860000000    -0.408594   
O75      O      0.420570000000     0.011440000000     0.037920000000    -0.339208   
O76      O      0.485020000000     0.981550000000     0.916290000000    -0.340272   
O77      O      0.607040000000     0.102800000000     0.957720000000    -0.328927   
O78      O      0.381990000000     0.943780000000     0.980220000000    -0.329756   
O79      O      0.473260000000     0.101270000000     0.994220000000    -0.339411   
O80      O      0.469880000000     0.944880000000     0.995740000000    -0.410884   
O81      O      0.584130000000     0.979350000000     0.105530000000    -0.326238   
O82      O      0.620430000000     0.082130000000     0.015130000000    -0.328399   
O83      O      0.517160000000     0.045660000000     0.080380000000    -0.338505   
O84      O      0.472330000000     0.898770000000     0.076480000000    -0.328582   
O85      O      0.398690000000     0.988010000000     0.902320000000    -0.330402   
O86      O      0.528320000000     0.128770000000     0.920880000000    -0.329204   
O87      O      0.531640000000     0.082140000000     0.000970000000    -0.412471   
O88      O      0.570450000000     0.002960000000     0.018490000000    -0.409107   
O89      O      0.580420000000     0.015690000000     0.958500000000    -0.337907   
O90      O      0.533080000000     0.903110000000     0.088780000000    -0.326969   
O91      O      0.501370000000     0.041510000000     0.928730000000    -0.410064   
O92      O      0.528030000000     0.925290000000     0.003310000000    -0.338791   
O93      O      0.467450000000     0.124610000000     0.909250000000    -0.327673   
O94      O      0.393550000000     0.924780000000     0.038620000000    -0.327135   
O95      O      0.416540000000     0.048440000000     0.892130000000    -0.327489   
O96      O      0.603880000000     0.038570000000     0.092880000000    -0.332319   


