data_structure

_audit_creation_method RASPA-1.0
_audit_creation_date 2023-5-9
_audit_author_name 'Poobodin Mano'

_cell_length_a    29.3964
_cell_length_b    28.4003
_cell_length_c    28.9371
_cell_angle_alpha 89.9988
_cell_angle_beta  90.0003
_cell_angle_gamma 89.9991
_cell_volume      24158.6

_symmetry_cell_setting          triclinic
_symmetry_space_group_name_Hall 'P 1'
_symmetry_space_group_name_H-M  'P 1'
_symmetry_Int_Tables_number     1

_symmetry_equiv_pos_as_xyz 'x,y,z'

loop_
_atom_site_label
_atom_site_type_symbol
_atom_site_fract_x
_atom_site_fract_y
_atom_site_fract_z
_atom_site_charge
C1       C      0.041080000000     0.972230000000     0.414360000000     0.359671   
C2       C      0.022570000000     0.170610000000     0.596220000000     0.376775   
C3       C      0.117910000000     0.998170000000     0.628800000000     0.378013   
C4       C      0.065400000000     0.077680000000     0.499650000000     0.357963   
C5       C      0.115030000000     0.871670000000     0.481540000000     0.38476    
C6       C      0.947120000000     0.843360000000     0.395290000000     0.374936   
C7       C      0.005450000000     0.938870000000     0.573260000000     0.358536   
C8       C      0.961560000000     0.077510000000     0.416150000000     0.357371   
C9       C      0.899730000000     0.941540000000     0.490840000000     0.358558   
C10      C      0.922810000000     0.045260000000     0.573810000000     0.353661   
C11      C      0.850740000000     0.014630000000     0.357350000000     0.372458   
C12      C      0.851290000000     0.146660000000     0.508510000000     0.372255   
C13      C      0.911940000000     0.481640000000     0.924050000000     0.359276   
C14      C      0.085730000000     0.669690000000     0.007990000000     0.371771   
C15      C      0.131070000000     0.523150000000     0.881600000000     0.374293   
C16      C      0.997900000000     0.588820000000     0.933610000000     0.357134   
C17      C      0.986240000000     0.395880000000     0.839650000000     0.373985   
C18      C      0.879380000000     0.339120000000     0.994850000000     0.376221   
C19      C      0.061850000000     0.438630000000     0.974400000000     0.352179   
C20      C      0.904390000000     0.570940000000     0.025270000000     0.357953   
C21      C      0.968690000000     0.421600000000     0.067470000000     0.35803    
C22      C      0.052960000000     0.526430000000     0.077660000000     0.354793   
C23      C      0.833080000000     0.490370000000     0.114560000000     0.37598    
C24      C      0.975050000000     0.613350000000     0.161780000000     0.375984   
C25      C      0.498120000000     0.622600000000     0.514540000000     0.354149   
C26      C      0.631000000000     0.388950000000     0.521510000000     0.376695   
C27      C      0.610340000000     0.498370000000     0.355730000000     0.3766     
C28      C      0.595870000000     0.527330000000     0.513240000000     0.358399   
C29      C      0.514650000000     0.667510000000     0.382520000000     0.381131   
C30      C      0.344410000000     0.636540000000     0.468020000000     0.379551   
C31      C      0.482430000000     0.507560000000     0.395320000000     0.364933   
C32      C      0.495640000000     0.534180000000     0.605960000000     0.352857   
C33      C      0.388500000000     0.502980000000     0.486370000000     0.35696    
C34      C      0.479010000000     0.409270000000     0.494070000000     0.354036   
C35      C      0.361870000000     0.539320000000     0.641880000000     0.366717   
C36      C      0.473340000000     0.377370000000     0.630420000000     0.372928   
C37      C      0.505730000000     0.876200000000     0.974160000000     0.357727   
C38      C      0.638750000000     0.110160000000     0.957020000000     0.369785   
C39      C      0.626060000000     0.004830000000     0.122480000000     0.377251   
C40      C      0.600750000000     0.975060000000     0.967640000000     0.354915   
C41      C      0.522090000000     0.834820000000     0.106580000000     0.376461   
C42      C      0.352250000000     0.860390000000     0.015240000000     0.378519   
C43      C      0.491880000000     0.995790000000     0.090270000000     0.353313   
C44      C      0.503050000000     0.970780000000     0.880080000000     0.35764    
C45      C      0.394910000000     0.996230000000     0.001400000000     0.358474   
C46      C      0.484960000000     0.091780000000     0.993320000000     0.357885   
C47      C      0.366860000000     0.961880000000     0.848750000000     0.372074   
C48      C      0.469980000000     0.128010000000     0.858790000000     0.375334   
C49      C      0.570300000000     0.775780000000     0.147310000000     0.0114954  
C50      C      0.480050000000     0.736790000000     0.343880000000     0.0106934  
C51      C      0.563530000000     0.728410000000     0.345700000000     0.0121589  
C52      C      0.477840000000     0.734110000000     0.291190000000    -0.0985215  
C53      C      0.570190000000     0.774060000000     0.200330000000    -0.0988384  
C54      C      0.567240000000     0.729310000000     0.292870000000    -0.098902   
C55      C      0.525100000000     0.758150000000     0.222160000000     0.016248   
C56      C      0.523570000000     0.744340000000     0.267790000000     0.0162982  
C57      C      0.487240000000     0.764510000000     0.143180000000     0.0106738  
C58      C      0.481010000000     0.767340000000     0.195450000000    -0.0983781  
C59      C      0.469210000000     0.353990000000     0.711080000000     0.00824517 
C60      C      0.435200000000     0.160570000000     0.788480000000     0.0104186  
C61      C      0.478970000000     0.213060000000     0.843050000000     0.00902137 
C62      C      0.459760000000     0.181600000000     0.746830000000    -0.101278   
C63      C      0.448760000000     0.313950000000     0.739570000000    -0.10007    
C64      C      0.499450000000     0.239500000000     0.801820000000    -0.100146   
C65      C      0.468180000000     0.266590000000     0.725920000000     0.0185489  
C66      C      0.472290000000     0.231890000000     0.757820000000     0.017974   
C67      C      0.493600000000     0.296050000000     0.649550000000     0.0115962  
C68      C      0.468840000000     0.256240000000     0.674700000000    -0.101677   
C69      C      0.805080000000     0.305410000000     0.017240000000     0.0108314  
C70      C      0.722500000000     0.115520000000     0.965590000000     0.0084122  
C71      C      0.679330000000     0.177890000000     0.922890000000     0.0100247  
C72      C      0.752760000000     0.153020000000     0.988580000000    -0.0988446  
C73      C      0.771590000000     0.284800000000     0.982480000000    -0.100834   
C74      C      0.702850000000     0.216850000000     0.950370000000    -0.0995637  
C75      C      0.783240000000     0.233650000000     0.974040000000     0.0175545  
C76      C      0.749880000000     0.201250000000     0.965770000000     0.0165064  
C77      C      0.867490000000     0.252080000000     0.990120000000     0.00908748 
C78      C      0.832710000000     0.223420000000     0.961620000000    -0.0998497  
C79      C      0.295090000000     0.818080000000     0.063140000000     0.00937377 
C80      C      0.141010000000     0.719150000000     0.964890000000     0.009436   
C81      C      0.110270000000     0.746390000000     0.041100000000     0.0080164  
C82      C      0.189730000000     0.725420000000     0.981960000000    -0.099371   
C83      C      0.242470000000     0.818450000000     0.064600000000    -0.101676   
C84      C      0.158730000000     0.754210000000     0.059910000000    -0.099934   
C85      C      0.223160000000     0.797360000000     0.020580000000     0.0192107  
C86      C      0.191580000000     0.762150000000     0.020190000000     0.016713   
C87      C      0.292500000000     0.814910000000     0.975770000000     0.0102174  
C88      C      0.241080000000     0.819530000000     0.976860000000    -0.10119    
C89      C      0.344690000000     0.513510000000     0.721120000000     0.00898581 
C90      C      0.156470000000     0.529280000000     0.801330000000     0.00861892 
C91      C      0.211990000000     0.540420000000     0.867430000000     0.0107161  
C92      C      0.195030000000     0.510780000000     0.770910000000    -0.10049    
C93      C      0.323650000000     0.535160000000     0.764820000000    -0.101287   
C94      C      0.250450000000     0.519640000000     0.837780000000    -0.101859   
C95      C      0.273480000000     0.543160000000     0.756910000000     0.0182256  
C96      C      0.240830000000     0.528490000000     0.787190000000     0.018766   
C97      C      0.285250000000     0.554410000000     0.671610000000     0.00730587 
C98      C      0.262800000000     0.573620000000     0.715420000000    -0.100109   
C99      C      0.792830000000     0.532990000000     0.175960000000     0.0103348  
C100     C      0.640940000000     0.453090000000     0.289130000000     0.00918871 
C101     C      0.632390000000     0.540850000000     0.284960000000     0.0106099  
C102     C      0.685720000000     0.456130000000     0.261830000000    -0.0999479  
C103     C      0.743540000000     0.548400000000     0.183210000000    -0.101807   
C104     C      0.678950000000     0.546310000000     0.262770000000    -0.100732   
C105     C      0.715420000000     0.505560000000     0.195670000000     0.0187563  
C106     C      0.691130000000     0.502470000000     0.235800000000     0.0178649  
C107     C      0.765780000000     0.452630000000     0.149010000000     0.00872294 
C108     C      0.716740000000     0.467180000000     0.159400000000    -0.100903   
C109     C      0.681690000000     0.332380000000     0.483640000000     0.00885682 
C110     C      0.828280000000     0.215060000000     0.555140000000     0.00931633 
C111     C      0.785280000000     0.192200000000     0.482040000000     0.0084579  
C112     C      0.783960000000     0.233640000000     0.576410000000    -0.102062   
C113     C      0.731650000000     0.318160000000     0.485790000000    -0.101127   
C114     C      0.741880000000     0.212370000000     0.503200000000    -0.100924   
C115     C      0.742260000000     0.296520000000     0.532130000000     0.0198475  
C116     C      0.753320000000     0.250290000000     0.537900000000     0.0195036  
C117     C      0.681970000000     0.342470000000     0.571250000000     0.0103509  
C118     C      0.732540000000     0.328880000000     0.572320000000    -0.102491   
C119     C      0.262130000000     0.651800000000     0.482110000000     0.00884718 
C120     C      0.194790000000     0.849450000000     0.468440000000     0.0123483  
C121     C      0.134340000000     0.787890000000     0.484650000000     0.0110222  
C122     C      0.217430000000     0.816420000000     0.433490000000    -0.102665   
C123     C      0.239170000000     0.698770000000     0.494160000000    -0.0995981  
C124     C      0.157770000000     0.753970000000     0.451590000000    -0.101758   
C125     C      0.241160000000     0.734010000000     0.454480000000     0.0174105  
C126     C      0.207620000000     0.766060000000     0.447440000000     0.0197275  
C127     C      0.302800000000     0.690160000000     0.415920000000     0.0111144  
C128     C      0.286380000000     0.738810000000     0.430200000000    -0.10084    
C129     C      0.340270000000     0.990880000000     0.773870000000     0.0107336  
C130     C      0.142030000000     0.988430000000     0.710210000000     0.00915966 
C131     C      0.192610000000     0.962850000000     0.644350000000     0.0120445  
C132     C      0.184470000000     0.001640000000     0.738530000000    -0.100174   
C133     C      0.312030000000     0.971700000000     0.733710000000    -0.101515   
C134     C      0.234390000000     0.982860000000     0.668460000000    -0.101978   
C135     C      0.262890000000     0.967440000000     0.748530000000     0.0183057  
C136     C      0.227850000000     0.979340000000     0.720020000000     0.018261   
C137     C      0.286390000000     0.952660000000     0.831080000000     0.0074745  
C138     C      0.255300000000     0.937760000000     0.791250000000    -0.100165   
C139     C      0.786450000000     0.060100000000     0.326030000000     0.00887059 
C140     C      0.675960000000     0.969000000000     0.181160000000     0.00856928 
C141     C      0.669720000000     0.058180000000     0.172640000000     0.0106634  
C142     C      0.685070000000     0.975930000000     0.232740000000    -0.100779   
C143     C      0.767780000000     0.073420000000     0.278230000000    -0.101901   
C144     C      0.677210000000     0.063780000000     0.224750000000    -0.1026     
C145     C      0.750800000000     0.029570000000     0.254130000000     0.0198909  
C146     C      0.706550000000     0.023530000000     0.241120000000     0.0193955  
C147     C      0.805120000000     0.978000000000     0.296070000000     0.00891448 
C148     C      0.786770000000     0.992070000000     0.248800000000    -0.101181   
C149     C      0.955270000000     0.757990000000     0.385040000000     0.00957567 
C150     C      0.971790000000     0.692760000000     0.194180000000     0.00825395 
C151     C      0.956440000000     0.620540000000     0.244180000000     0.0103862  
C152     C      0.985440000000     0.719900000000     0.237640000000    -0.100816   
C153     C      0.932610000000     0.716430000000     0.360060000000    -0.102129   
C154     C      0.972350000000     0.647870000000     0.287000000000    -0.102575   
C155     C      0.935210000000     0.725040000000     0.308700000000     0.0192559  
C156     C      0.962690000000     0.699550000000     0.279980000000     0.0199801  
C157     C      0.931150000000     0.812080000000     0.318450000000     0.008133   
C158     C      0.910710000000     0.769240000000     0.294230000000    -0.100907   
C159     C      0.024590000000     0.257770000000     0.605030000000     0.0116424  
C160     C      0.968220000000     0.318920000000     0.804240000000     0.0104865  
C161     C      0.998970000000     0.386570000000     0.755900000000     0.00969129 
C162     C      0.999480000000     0.287450000000     0.775350000000    -0.100975   
C163     C      0.992570000000     0.278910000000     0.641290000000    -0.0998953  
C164     C      0.986410000000     0.353830000000     0.715350000000    -0.101112   
C165     C      0.010260000000     0.271870000000     0.690530000000     0.0159725  
C166     C      0.999750000000     0.302960000000     0.725100000000     0.0170196  
C167     C      0.062250000000     0.206750000000     0.662990000000     0.00928667 
C168     C      0.030810000000     0.223780000000     0.701730000000    -0.0986828  
H1       H      0.984400000000     0.908440000000     0.580060000000    -0.0669806  
H2       H      0.870710000000     0.946730000000     0.513210000000    -0.0638474  
H3       H      0.983070000000     0.107310000000     0.408250000000    -0.0624829  
H4       H      0.922270000000     0.029100000000     0.607630000000    -0.0623451  
H5       H      0.094400000000     0.073400000000     0.477060000000    -0.0657748  
H6       H      0.038750000000     0.987950000000     0.380420000000    -0.0659756  
H7       H      0.066070000000     0.404760000000     0.990890000000    -0.0626847  
H8       H      0.986980000000     0.419650000000     0.099820000000    -0.0640243  
H9       H      0.899970000000     0.604840000000     0.008860000000    -0.0640703  
H10      H      0.086100000000     0.509940000000     0.077750000000    -0.0628254  
H11      H      0.979740000000     0.592370000000     0.901300000000    -0.0648023  
H12      H      0.878590000000     0.497680000000     0.924280000000    -0.0658522  
H13      H      0.449740000000     0.506240000000     0.378270000000    -0.0688548  
H14      H      0.374310000000     0.468050000000     0.482920000000    -0.0602693  
H15      H      0.527240000000     0.539500000000     0.624340000000    -0.0600719  
H16      H      0.475500000000     0.390160000000     0.461950000000    -0.0632915  
H17      H      0.612090000000     0.561430000000     0.515290000000    -0.0676405  
H18      H      0.498890000000     0.638020000000     0.548670000000    -0.0600537  
H19      H      0.459680000000     0.998850000000     0.108060000000    -0.0634567  
H20      H      0.379910000000     0.030880000000     0.004040000000    -0.0626501  
H21      H      0.534910000000     0.966870000000     0.861810000000    -0.0611959  
H22      H      0.482720000000     0.109350000000     0.026390000000    -0.0625554  
H23      H      0.617840000000     0.941630000000     0.963410000000    -0.0634471  
H24      H      0.506170000000     0.859930000000     0.940390000000    -0.0644769  
H25      H      0.598400000000     0.749990000000     0.209870000000     0.0417472  
H26      H      0.483800000000     0.774180000000     0.354740000000     0.0272597  
H27      H      0.493120000000     0.727230000000     0.132920000000     0.0274107  
H28      H      0.454500000000     0.740950000000     0.204240000000     0.0422855  
H29      H      0.451500000000     0.759930000000     0.280460000000     0.0420187  
H30      H      0.595800000000     0.753600000000     0.285100000000     0.0419139  
H31      H      0.599450000000     0.797500000000     0.135300000000     0.03338    
H32      H      0.447400000000     0.724050000000     0.358690000000     0.0348736  
H33      H      0.468120000000     0.802920000000     0.204680000000     0.0497082  
H34      H      0.576680000000     0.693520000000     0.280610000000     0.0503781  
H35      H      0.455330000000     0.775790000000     0.125790000000     0.0359252  
H36      H      0.567060000000     0.764950000000     0.359140000000     0.0260712  
H37      H      0.578330000000     0.809760000000     0.213740000000     0.0506467  
H38      H      0.466400000000     0.698300000000     0.280900000000     0.0491736  
H39      H      0.592450000000     0.708070000000     0.360330000000     0.032681   
H40      H      0.576150000000     0.739670000000     0.133620000000     0.0259827  
H41      H      0.453210000000     0.322090000000     0.776770000000     0.0430778  
H42      H      0.402170000000     0.178830000000     0.794140000000     0.0289662  
H43      H      0.530300000000     0.296030000000     0.658970000000     0.0304881  
H44      H      0.487250000000     0.222940000000     0.667080000000     0.0436361  
H45      H      0.436360000000     0.179240000000     0.716730000000     0.0431814  
H46      H      0.503310000000     0.277170000000     0.811050000000     0.043101   
H47      H      0.447600000000     0.385760000000     0.716130000000     0.0342024  
H48      H      0.427780000000     0.123060000000     0.780300000000     0.0347627  
H49      H      0.433390000000     0.253140000000     0.661650000000     0.0506962  
H50      H      0.534350000000     0.225780000000     0.795700000000     0.0505915  
H51      H      0.490790000000     0.289420000000     0.611740000000     0.0332332  
H52      H      0.449160000000     0.233100000000     0.856180000000     0.0273521  
H53      H      0.411480000000     0.312910000000     0.733150000000     0.0508579  
H54      H      0.491030000000     0.161050000000     0.739050000000     0.0498132  
H55      H      0.504670000000     0.212090000000     0.871240000000     0.0358508  
H56      H      0.503640000000     0.362330000000     0.724790000000     0.024841   
H57      H      0.736950000000     0.288860000000     0.997350000000     0.0426773  
H58      H      0.740410000000     0.101480000000     0.934670000000     0.027691   
H59      H      0.872940000000     0.234120000000     0.023810000000     0.0272137  
H60      H      0.841400000000     0.185620000000     0.964920000000     0.042846   
H61      H      0.787990000000     0.139220000000     0.989610000000     0.0429501  
H62      H      0.705060000000     0.248390000000     0.927700000000     0.042846   
H63      H      0.795170000000     0.342660000000     0.023360000000     0.0338063  
H64      H      0.718300000000     0.085630000000     0.990060000000     0.0361707  
H65      H      0.837260000000     0.232670000000     0.924590000000     0.0504299  
H66      H      0.681970000000     0.225830000000     0.981190000000     0.0493148  
H67      H      0.900620000000     0.251770000000     0.971600000000     0.0338867  
H68      H      0.697920000000     0.171180000000     0.890060000000     0.0287955  
H69      H      0.773270000000     0.304680000000     0.949420000000     0.0503912  
H70      H      0.741520000000     0.157120000000     0.025040000000     0.0505922  
H71      H      0.644510000000     0.190290000000     0.913970000000     0.0341944  
H72      H      0.802200000000     0.286700000000     0.050910000000     0.0287338  
H73      H      0.231890000000     0.798630000000     0.095870000000     0.0430225  
H74      H      0.129900000000     0.751770000000     0.946860000000     0.0274433  
H75      H      0.302080000000     0.777120000000     0.972940000000     0.0263355  
H76      H      0.225940000000     0.805540000000     0.944620000000     0.0432693  
H77      H      0.212420000000     0.732520000000     0.952270000000     0.0431886  
H78      H      0.157300000000     0.784980000000     0.083560000000     0.0428188  
H79      H      0.307550000000     0.840510000000     0.092000000000     0.0327783  
H80      H      0.140070000000     0.690310000000     0.938940000000     0.0363299  
H81      H      0.232190000000     0.857600000000     0.977340000000     0.0527764  
H82      H      0.169740000000     0.722870000000     0.080010000000     0.0497147  
H83      H      0.304580000000     0.832660000000     0.943820000000     0.0353349  
H84      H      0.097040000000     0.779980000000     0.026590000000     0.0284031  
H85      H      0.230140000000     0.855270000000     0.068090000000     0.0495539  
H86      H      0.201520000000     0.691390000000     0.996700000000     0.0516755  
H87      H      0.087860000000     0.736620000000     0.070500000000     0.0360704  
H88      H      0.307570000000     0.781630000000     0.069200000000     0.0293629  
H89      H      0.330300000000     0.510410000000     0.793750000000     0.0432379  
H90      H      0.150400000000     0.566980000000     0.792950000000     0.0262444  
H91      H      0.265940000000     0.523020000000     0.659630000000     0.0264424  
H92      H      0.225900000000     0.578660000000     0.709340000000     0.0428001  
H93      H      0.187530000000     0.519170000000     0.734300000000     0.0430531  
H94      H      0.282590000000     0.536680000000     0.849100000000     0.043182   
H95      H      0.382190000000     0.512350000000     0.726340000000     0.0358604  
H96      H      0.125190000000     0.509460000000     0.791890000000     0.0337851  
H97      H      0.276720000000     0.609350000000     0.722260000000     0.050308   
H98      H      0.253230000000     0.481120000000     0.843980000000     0.0503809  
H99      H      0.282250000000     0.581930000000     0.644430000000     0.035833   
H100     H      0.213750000000     0.579550000000     0.866470000000     0.030558   
H101     H      0.340450000000     0.569270000000     0.772830000000     0.0502648  
H102     H      0.195400000000     0.471700000000     0.773210000000     0.0514904  
H103     H      0.217790000000     0.528940000000     0.903730000000     0.0317178  
H104     H      0.332420000000     0.476690000000     0.716930000000     0.0307209  
H105     H      0.744160000000     0.576020000000     0.210240000000     0.0427028  
H106     H      0.612660000000     0.444810000000     0.264930000000     0.0278152  
H107     H      0.778970000000     0.431200000000     0.178250000000     0.0270512  
H108     H      0.696070000000     0.435790000000     0.167830000000     0.0426323  
H109     H      0.688000000000     0.424600000000     0.239570000000     0.042818   
H110     H      0.676380000000     0.577710000000     0.240010000000     0.0422857  
H111     H      0.811970000000     0.564400000000     0.163630000000     0.0355433  
H112     H      0.643870000000     0.423210000000     0.313780000000     0.0343998  
H113     H      0.701630000000     0.481710000000     0.127180000000     0.050358   
H114     H      0.705150000000     0.552900000000     0.289720000000     0.0499668  
H115     H      0.765190000000     0.429730000000     0.117840000000     0.0350728  
H116     H      0.605650000000     0.539250000000     0.257780000000     0.0289043  
H117     H      0.730040000000     0.564430000000     0.150950000000     0.0504408  
H118     H      0.714400000000     0.453570000000     0.286740000000     0.0506065  
H119     H      0.626230000000     0.573280000000     0.305540000000     0.0356539  
H120     H      0.807910000000     0.521660000000     0.209430000000     0.0295618  
H121     H      0.740630000000     0.295220000000     0.456130000000     0.0434155  
H122     H      0.848430000000     0.244980000000     0.541100000000     0.0297454  
H123     H      0.660950000000     0.311490000000     0.581170000000     0.031158   
H124     H      0.739460000000     0.312760000000     0.606470000000     0.0430683  
H125     H      0.793250000000     0.261730000000     0.601260000000     0.0428648  
H126     H      0.718180000000     0.224200000000     0.475740000000     0.043296   
H127     H      0.677010000000     0.353230000000     0.451460000000     0.035059   
H128     H      0.848270000000     0.198680000000     0.583580000000     0.0353248  
H129     H      0.753840000000     0.361080000000     0.569250000000     0.0502209  
H130     H      0.723890000000     0.183570000000     0.521740000000     0.0506139  
H131     H      0.676760000000     0.370350000000     0.597760000000     0.0326808  
H132     H      0.799980000000     0.218370000000     0.457670000000     0.0267628  
H133     H      0.752800000000     0.350370000000     0.481810000000     0.0512818  
H134     H      0.766770000000     0.204990000000     0.595920000000     0.0503406  
H135     H      0.775460000000     0.160600000000     0.461650000000     0.0353437  
H136     H      0.660330000000     0.300190000000     0.480730000000     0.0262127  
H137     H      0.204240000000     0.691450000000     0.506520000000     0.0429319  
H138     H      0.212310000000     0.846880000000     0.502430000000     0.0296257  
H139     H      0.279040000000     0.674600000000     0.390150000000     0.027411   
H140     H      0.283530000000     0.760160000000     0.398110000000     0.0427105  
H141     H      0.254290000000     0.824920000000     0.433160000000     0.0432524  
H142     H      0.151160000000     0.717090000000     0.462150000000     0.0430732  
H143     H      0.267370000000     0.631610000000     0.514590000000     0.0362849  
H144     H      0.198790000000     0.886110000000     0.455450000000     0.0313287  
H145     H      0.311500000000     0.755670000000     0.453680000000     0.0508948  
H146     H      0.142090000000     0.757940000000     0.416840000000     0.0520424  
H147     H      0.336160000000     0.694620000000     0.398410000000     0.0353204  
H148     H      0.144890000000     0.779650000000     0.520660000000     0.0256874  
H149     H      0.257630000000     0.714600000000     0.523870000000     0.0503153  
H150     H      0.203540000000     0.823020000000     0.398350000000     0.0506326  
H151     H      0.097060000000     0.781620000000     0.482260000000     0.0321918  
H152     H      0.238830000000     0.630780000000     0.459950000000     0.0277562  
H153     H      0.316330000000     0.996660000000     0.704460000000     0.0432245  
H154     H      0.130180000000     0.952960000000     0.721180000000     0.0274887  
H155     H      0.272090000000     0.984930000000     0.847330000000     0.0253562  
H156     H      0.219610000000     0.937890000000     0.803510000000     0.0428057  
H157     H      0.177920000000     0.993340000000     0.775330000000     0.042869   
H158     H      0.264080000000     0.961930000000     0.656430000000     0.0432158  
H159     H      0.376630000000     0.990180000000     0.763110000000     0.0342776  
H160     H      0.114580000000     0.013920000000     0.718750000000     0.0335826  
H161     H      0.263250000000     0.900630000000     0.782110000000     0.0500929  
H162     H      0.239520000000     0.020280000000     0.658440000000     0.050568   
H163     H      0.285560000000     0.924160000000     0.857460000000     0.0353848  
H164     H      0.189440000000     0.924500000000     0.651570000000     0.0304118  
H165     H      0.325080000000     0.936610000000     0.723000000000     0.0505188  
H166     H      0.188920000000     0.040470000000     0.736680000000     0.0502935  
H167     H      0.198270000000     0.967230000000     0.606570000000     0.0326553  
H168     H      0.330680000000     0.028120000000     0.780860000000     0.0301324  
H169     H      0.741070000000     0.100250000000     0.284030000000     0.0428578  
H170     H      0.708770000000     0.962930000000     0.162990000000     0.0262729  
H171     H      0.778720000000     0.957590000000     0.314960000000     0.0279472  
H172     H      0.775320000000     0.960540000000     0.229490000000     0.0431997  
H173     H      0.705010000000     0.946150000000     0.247000000000     0.0430015  
H174     H      0.692060000000     0.099080000000     0.230520000000     0.042827   
H175     H      0.803760000000     0.091830000000     0.340170000000     0.0358377  
H176     H      0.655020000000     0.936620000000     0.177380000000     0.0350554  
H177     H      0.815210000000     0.007080000000     0.228160000000     0.0507275  
H178     H      0.643890000000     0.062660000000     0.242910000000     0.0504588  
H179     H      0.834580000000     0.954240000000     0.289960000000     0.0358341  
H180     H      0.702130000000     0.065110000000     0.153960000000     0.0303387  
H181     H      0.795190000000     0.089780000000     0.257180000000     0.0500591  
H182     H      0.651920000000     0.974940000000     0.251250000000     0.0508608  
H183     H      0.644800000000     0.085680000000     0.162160000000     0.0328834  
H184     H      0.757670000000     0.051210000000     0.349430000000     0.0291878  
H185     H      0.949980000000     0.683820000000     0.371420000000     0.0428415  
H186     H      0.936510000000     0.702900000000     0.184450000000     0.0261153  
H187     H      0.964200000000     0.820790000000     0.301770000000     0.0264333  
H188     H      0.910030000000     0.774470000000     0.256250000000     0.0428113  
H189     H      0.979000000000     0.758030000000     0.232700000000     0.0432713  
H190     H      0.954260000000     0.632660000000     0.317100000000     0.0430203  
H191     H      0.948300000000     0.753970000000     0.422640000000     0.0324444  
H192     H      0.994840000000     0.704320000000     0.165880000000     0.0343794  
H193     H      0.874480000000     0.766030000000     0.304860000000     0.0496183  
H194     H      0.009480000000     0.642590000000     0.292180000000     0.0502711  
H195     H      0.907580000000     0.842130000000     0.312520000000     0.0344788  
H196     H      0.918580000000     0.620060000000     0.243240000000     0.0313997  
H197     H      0.896370000000     0.713800000000     0.370780000000     0.0496953  
H198     H      0.022850000000     0.716500000000     0.242270000000     0.0507124  
H199     H      0.968430000000     0.583570000000     0.248060000000     0.0321955  
H200     H      0.992740000000     0.755940000000     0.379890000000     0.0327921  
H201     H      0.987030000000     0.316270000000     0.632020000000     0.0424294  
H202     H      0.932540000000     0.315890000000     0.791790000000     0.0301635  
H203     H      0.093120000000     0.229390000000     0.661760000000     0.0283767  
H204     H      0.051530000000     0.224910000000     0.733820000000     0.0426799  
H205     H      0.986690000000     0.250760000000     0.778640000000     0.0429216  
H206     H      0.949210000000     0.355640000000     0.708770000000     0.0487047  
H207     H      0.008000000000     0.258630000000     0.570520000000     0.0332591  
H208     H      0.969240000000     0.305580000000     0.840350000000     0.0334117  
H209     H      0.002850000000     0.197910000000     0.706710000000     0.0488132  
H210     H      0.004720000000     0.367620000000     0.684630000000     0.0432037  
H211     H      0.074050000000     0.170440000000     0.670830000000     0.0355472  
H212     H      0.983750000000     0.421800000000     0.749280000000     0.0307698  
H213     H      0.959030000000     0.261050000000     0.638600000000     0.0526437  
H214     H      0.034650000000     0.289110000000     0.789390000000     0.0500898  
H215     H      0.036600000000     0.390650000000     0.756980000000     0.0337505  
H216     H      0.055540000000     0.280160000000     0.602370000000     0.0266436  
Mg1      Mg     0.874190000000     0.041350000000     0.468580000000     0.782174   
Mg2      Mg     0.944400000000     0.963170000000     0.391440000000     0.786359   
Mg3      Mg     0.022070000000     0.050910000000     0.599750000000     0.782188   
Mg4      Mg     0.001460000000     0.890580000000     0.483590000000     0.790994   
Mg5      Mg     0.963700000000     0.126000000000     0.509610000000     0.78794    
Mg6      Mg     0.092330000000     0.979610000000     0.515910000000     0.796215   
Mg7      Mg     0.945400000000     0.513820000000     0.111170000000     0.787836   
Mg8      Mg     0.877430000000     0.456620000000     0.016680000000     0.79119    
Mg9      Mg     0.088100000000     0.552770000000     0.983720000000     0.78027    
Mg10     Mg     0.972460000000     0.391790000000     0.956290000000     0.779107   
Mg11     Mg     0.994070000000     0.616780000000     0.045940000000     0.784721   
Mg12     Mg     0.018400000000     0.496270000000     0.888010000000     0.784406   
Mg13     Mg     0.420980000000     0.462530000000     0.579180000000     0.782954   
Mg14     Mg     0.408340000000     0.588780000000     0.553120000000     0.775495   
Mg15     Mg     0.563080000000     0.443660000000     0.443490000000     0.787291   
Mg16     Mg     0.436850000000     0.591850000000     0.427290000000     0.797786   
Mg17     Mg     0.545510000000     0.443710000000     0.572660000000     0.785874   
Mg18     Mg     0.562970000000     0.575880000000     0.431280000000     0.795371   
Mg19     Mg     0.424930000000     0.038570000000     0.910270000000     0.787807   
Mg20     Mg     0.419270000000     0.910870000000     0.933550000000     0.790119   
Mg21     Mg     0.572870000000     0.056540000000     0.036490000000     0.788901   
Mg22     Mg     0.443040000000     0.909220000000     0.061180000000     0.780283   
Mg23     Mg     0.548970000000     0.062820000000     0.911280000000     0.782501   
Mg24     Mg     0.571140000000     0.925080000000     0.054820000000     0.784012   
N1       N      0.519290000000     0.709620000000     0.360030000000    -0.171682   
N2       N      0.526580000000     0.793120000000     0.129880000000    -0.170572   
N3       N      0.463840000000     0.165420000000     0.829960000000    -0.171807   
N4       N      0.473290000000     0.341690000000     0.661730000000    -0.17189    
N5       N      0.678270000000     0.134750000000     0.950800000000    -0.169874   
N6       N      0.851710000000     0.300490000000     0.999220000000    -0.170055   
N7       N      0.110630000000     0.710260000000     0.004430000000    -0.169876   
N8       N      0.312760000000     0.834930000000     0.018260000000    -0.170756   
N9       N      0.166750000000     0.525080000000     0.851200000000    -0.169596   
N10      N      0.333230000000     0.540770000000     0.679190000000    -0.169318   
N11      N      0.630560000000     0.497620000000     0.313080000000    -0.170543   
N12      N      0.795750000000     0.493940000000     0.142450000000    -0.171242   
N13      N      0.819600000000     0.180680000000     0.517710000000    -0.170283   
N14      N      0.667490000000     0.359230000000     0.525100000000    -0.170254   
N15      N      0.146400000000     0.837260000000     0.474160000000    -0.173022   
N16      N      0.305040000000     0.659520000000     0.456960000000    -0.171825   
N17      N      0.151180000000     0.987340000000     0.660100000000    -0.170865   
N18      N      0.333460000000     0.962630000000     0.815980000000    -0.171229   
N19      N      0.653160000000     0.010470000000     0.160560000000    -0.17056    
N20      N      0.818060000000     0.019620000000     0.323980000000    -0.170094   
N21      N      0.973710000000     0.641060000000     0.200560000000    -0.169929   
N22      N      0.938810000000     0.804400000000     0.368560000000    -0.169424   
N23      N      0.983110000000     0.368400000000     0.800900000000    -0.170394   
N24      N      0.037990000000     0.209890000000     0.618740000000    -0.170587   
O1       O      0.907140000000     0.971130000000     0.458980000000    -0.411307   
O2       O      0.027370000000     0.940640000000     0.535610000000    -0.411329   
O3       O      0.928370000000     0.910150000000     0.501830000000    -0.342744   
O4       O      0.963480000000     0.041790000000     0.389810000000    -0.338925   
O5       O      0.992650000000     0.175110000000     0.564480000000    -0.340374   
O6       O      0.931600000000     0.883380000000     0.382310000000    -0.339297   
O7       O      0.890090000000     0.036440000000     0.546390000000    -0.336899   
O8       O      0.008040000000     0.947620000000     0.428780000000    -0.41259    
O9       O      0.119610000000     0.978740000000     0.589090000000    -0.347169   
O10      O      0.037820000000     0.130140000000     0.608120000000    -0.340006   
O11      O      0.002140000000     0.973750000000     0.600260000000    -0.343161   
O12      O      0.073320000000     0.862800000000     0.473080000000    -0.346592   
O13      O      0.878790000000     0.980450000000     0.354410000000    -0.342726   
O14      O      0.890750000000     0.150060000000     0.526820000000    -0.339325   
O15      O      0.958340000000     0.067210000000     0.561250000000    -0.407922   
O16      O      0.058170000000     0.046800000000     0.530420000000    -0.412284   
O17      O      0.036570000000     0.109170000000     0.489530000000    -0.341744   
O18      O      0.127820000000     0.910960000000     0.498540000000    -0.344858   
O19      O      0.939920000000     0.077180000000     0.454010000000    -0.412433   
O20      O      0.073480000000     0.985010000000     0.440240000000    -0.344581   
O21      O      0.841340000000     0.113200000000     0.480760000000    -0.340274   
O22      O      0.973880000000     0.839700000000     0.429870000000    -0.340959   
O23      O      0.851140000000     0.043020000000     0.391810000000    -0.336486   
O24      O      0.087170000000     0.028480000000     0.638880000000    -0.335651   
O25      O      0.939310000000     0.453830000000     0.062210000000    -0.412745   
O26      O      0.028640000000     0.444270000000     0.946910000000    -0.404027   
O27      O      0.981960000000     0.395690000000     0.034450000000    -0.341339   
O28      O      0.879160000000     0.537210000000     0.012230000000    -0.340885   
O29      O      0.053210000000     0.667740000000     0.037250000000    -0.33967    
O30      O      0.867180000000     0.377320000000     0.014500000000    -0.344838   
O31      O      0.022750000000     0.509870000000     0.104430000000    -0.340102   
O32      O      0.921600000000     0.451930000000     0.955180000000    -0.411654   
O33      O      0.094450000000     0.502220000000     0.869300000000    -0.339556   
O34      O      0.096320000000     0.634250000000     0.982720000000    -0.336113   
O35      O      0.086440000000     0.472470000000     0.988410000000    -0.338773   
O36      O      0.969340000000     0.380610000000     0.877590000000    -0.339953   
O37      O      0.832390000000     0.461910000000     0.080450000000    -0.342369   
O38      O      0.993630000000     0.629280000000     0.124950000000    -0.339496   
O39      O      0.044090000000     0.556580000000     0.046580000000    -0.408994   
O40      O      0.025810000000     0.555190000000     0.938240000000    -0.409503   
O41      O      0.986040000000     0.614750000000     0.967190000000    -0.340475   
O42      O      0.007840000000     0.434980000000     0.837580000000    -0.337294   
O43      O      0.937880000000     0.565070000000     0.052250000000    -0.411391   
O44      O      0.941620000000     0.498620000000     0.897100000000    -0.34268    
O45      O      0.954530000000     0.573750000000     0.162150000000    -0.342432   
O46      O      0.914960000000     0.337380000000     0.969340000000    -0.334355   
O47      O      0.868290000000     0.514930000000     0.124120000000    -0.341273   
O48      O      0.133980000000     0.544960000000     0.920180000000    -0.338721   
O49      O      0.403220000000     0.516060000000     0.525520000000    -0.412721   
O50      O      0.494390000000     0.545520000000     0.414810000000    -0.421829   
O51      O      0.394730000000     0.527100000000     0.449880000000    -0.337665   
O52      O      0.468310000000     0.568790000000     0.601920000000    -0.332661   
O53      O      0.605880000000     0.396030000000     0.556910000000    -0.340048   
O54      O      0.348190000000     0.614960000000     0.506710000000    -0.335508   
O55      O      0.444110000000     0.413730000000     0.519730000000    -0.335703   
O56      O      0.460710000000     0.606170000000     0.499550000000    -0.409046   
O57      O      0.594120000000     0.537340000000     0.370330000000    -0.345742   
O58      O      0.621480000000     0.406940000000     0.482140000000    -0.342151   
O59      O      0.503730000000     0.469320000000     0.400810000000    -0.345672   
O60      O      0.475500000000     0.655300000000     0.397460000000    -0.342243   
O61      O      0.356880000000     0.568930000000     0.609090000000    -0.338769   
O62      O      0.505340000000     0.379650000000     0.600680000000    -0.337865   
O63      O      0.516180000000     0.430360000000     0.502380000000    -0.408172   
O64      O      0.577710000000     0.515110000000     0.475350000000    -0.413693   
O65      O      0.589470000000     0.505070000000     0.550560000000    -0.342788   
O66      O      0.549350000000     0.641100000000     0.387870000000    -0.344446   
O67      O      0.488670000000     0.495020000000     0.586060000000    -0.410314   
O68      O      0.535790000000     0.616540000000     0.493820000000    -0.339106   
O69      O      0.442420000000     0.408660000000     0.632720000000    -0.343116   
O70      O      0.376800000000     0.637420000000     0.439010000000    -0.35272    
O71      O      0.392330000000     0.507260000000     0.639830000000    -0.333605   
O72      O      0.607620000000     0.460640000000     0.379900000000    -0.335786   
O73      O      0.410710000000     0.983010000000     0.962740000000    -0.414348   
O74      O      0.502430000000     0.956380000000     0.072530000000    -0.407129   
O75      O      0.401070000000     0.973030000000     0.038350000000    -0.340191   
O76      O      0.478310000000     0.934500000000     0.885890000000    -0.337366   
O77      O      0.607040000000     0.113870000000     0.927050000000    -0.339657   
O78      O      0.362770000000     0.878450000000     0.976380000000    -0.345682   
O79      O      0.448660000000     0.086540000000     0.969960000000    -0.337689   
O80      O      0.468940000000     0.894350000000     0.988460000000    -0.410279   
O81      O      0.608080000000     0.964620000000     0.114130000000    -0.33919    
O82      O      0.634030000000     0.084690000000     0.993170000000    -0.334643   
O83      O      0.514110000000     0.033290000000     0.082590000000    -0.339298   
O84      O      0.482840000000     0.846580000000     0.091290000000    -0.340413   
O85      O      0.366390000000     0.929990000000     0.879640000000    -0.343229   
O86      O      0.505620000000     0.125800000000     0.884050000000    -0.335383   
O87      O      0.522260000000     0.072520000000     0.981890000000    -0.416227   
O88      O      0.582950000000     0.984710000000     0.006450000000    -0.410325   
O89      O      0.595010000000     0.000740000000     0.932120000000    -0.337612   
O90      O      0.556920000000     0.861230000000     0.100920000000    -0.33863    
O91      O      0.493860000000     0.010020000000     0.898770000000    -0.412568   
O92      O      0.543400000000     0.882110000000     0.994630000000    -0.340801   
O93      O      0.440410000000     0.095330000000     0.858740000000    -0.347101   
O94      O      0.378810000000     0.863840000000     0.050100000000    -0.337627   
O95      O      0.396380000000     0.994800000000     0.849430000000    -0.33708    
O96      O      0.619890000000     0.039930000000     0.095690000000    -0.345206   


