data_structure

_audit_creation_method RASPA-1.0
_audit_creation_date 2023-5-9
_audit_author_name 'Poobodin Mano'

_cell_length_a    34.4685
_cell_length_b    34.6901
_cell_length_c    35.7578
_cell_angle_alpha 89.9988
_cell_angle_beta  90.0003
_cell_angle_gamma 89.9991
_cell_volume      42756.2

_symmetry_cell_setting          triclinic
_symmetry_space_group_name_Hall 'P 1'
_symmetry_space_group_name_H-M  'P 1'
_symmetry_Int_Tables_number     1

_symmetry_equiv_pos_as_xyz 'x,y,z'

loop_
_atom_site_label
_atom_site_type_symbol
_atom_site_fract_x
_atom_site_fract_y
_atom_site_fract_z
_atom_site_charge
C1       C      0.000110000000     0.088580000000     0.471920000000     0.357551   
C2       C      0.030160000000     0.897480000000     0.364930000000     0.37076    
C3       C      0.882530000000     0.972180000000     0.377170000000     0.376498   
C4       C      0.011620000000     0.007860000000     0.396460000000     0.357805   
C5       C      0.884280000000     0.112200000000     0.457660000000     0.373041   
C6       C      0.966690000000     0.101670000000     0.597190000000     0.370175   
C7       C      0.911050000000     0.983610000000     0.485890000000     0.353712   
C8       C      0.085160000000     0.015340000000     0.476550000000     0.354648   
C9       C      0.984420000000     0.991570000000     0.566120000000     0.358322   
C10      C      0.995660000000     0.910690000000     0.490210000000     0.357873   
C11      C      0.113320000000     0.026580000000     0.585820000000     0.375884   
C12      C      0.110850000000     0.886720000000     0.504980000000     0.374315   
C13      C      0.945370000000     0.459740000000     0.941280000000     0.356645   
C14      C      0.103180000000     0.614860000000     0.960720000000     0.37522    
C15      C      0.130380000000     0.470970000000     0.890310000000     0.375343   
C16      C      0.020630000000     0.540720000000     0.924100000000     0.358434   
C17      C      0.997830000000     0.373410000000     0.883510000000     0.375345   
C18      C      0.921700000000     0.358640000000     0.025060000000     0.37397    
C19      C      0.073660000000     0.426200000000     0.979140000000     0.358579   
C20      C      0.947580000000     0.548090000000     0.006380000000     0.354709   
C21      C      0.002880000000     0.434260000000     0.060430000000     0.356782   
C22      C      0.077120000000     0.516650000000     0.044550000000     0.358069   
C23      C      0.893680000000     0.502760000000     0.096630000000     0.373888   
C24      C      0.024360000000     0.603450000000     0.100220000000     0.374358   
C25      C      0.567660000000     0.471640000000     0.525300000000     0.357698   
C26      C      0.419170000000     0.637870000000     0.515280000000     0.374362   
C27      C      0.391960000000     0.498180000000     0.596590000000     0.372635   
C28      C      0.500150000000     0.559240000000     0.545750000000     0.357435   
C29      C      0.515490000000     0.390970000000     0.591300000000     0.375202   
C30      C      0.577220000000     0.366430000000     0.445420000000     0.372466   
C31      C      0.432610000000     0.446550000000     0.503640000000     0.355402   
C32      C      0.561430000000     0.557750000000     0.456640000000     0.356445   
C33      C      0.495540000000     0.444810000000     0.413600000000     0.358494   
C34      C      0.427280000000     0.531420000000     0.435160000000     0.354459   
C35      C      0.604120000000     0.507160000000     0.365090000000     0.373722   
C36      C      0.476620000000     0.611740000000     0.367760000000     0.374474   
C37      C      0.570980000000     0.023310000000     0.932140000000     0.35687    
C38      C      0.399520000000     0.883810000000     0.954350000000     0.37511    
C39      C      0.389680000000     0.021440000000     0.869060000000     0.371544   
C40      C      0.490070000000     0.947890000000     0.916470000000     0.359641   
C41      C      0.530990000000     0.107540000000     0.863850000000     0.376269   
C42      C      0.599910000000     0.129020000000     0.007450000000     0.371172   
C43      C      0.443930000000     0.070770000000     0.958490000000     0.357373   
C44      C      0.557780000000     0.942140000000     0.003680000000     0.355724   
C45      C      0.508990000000     0.064700000000     0.044730000000     0.355661   
C46      C      0.428890000000     0.986810000000     0.031250000000     0.356938   
C47      C      0.609810000000     0.991170000000     0.093390000000     0.373365   
C48      C      0.473840000000     0.899740000000     0.096200000000     0.372531   
C49      C      0.473650000000     0.659240000000     0.275370000000    -0.0294868  
C50      C      0.463410000000     0.852080000000     0.190850000000    -0.0294508  
C51      C      0.451270000000     0.834700000000     0.111690000000    -0.00942156 
C52      C      0.479890000000     0.880140000000     0.161890000000    -0.00821488 
C53      C      0.494050000000     0.766900000000     0.219360000000    -0.0538481  
C54      C      0.421340000000     0.742470000000     0.244450000000    -0.0540212  
C55      C      0.460540000000     0.783690000000     0.204270000000     0.0607874  
C56      C      0.437930000000     0.809130000000     0.144120000000    -0.0290186  
C57      C      0.454840000000     0.724680000000     0.258480000000     0.0607969  
C58      C      0.458650000000     0.706200000000     0.323720000000    -0.0296932  
C59      C      0.491400000000     0.738110000000     0.246600000000    -0.0563086  
C60      C      0.446760000000     0.674420000000     0.351230000000    -0.00910957 
C61      C      0.462990000000     0.625590000000     0.301070000000    -0.00944313 
C62      C      0.424030000000     0.772120000000     0.218010000000    -0.0561916  
C63      C      0.532830000000     0.343210000000     0.684470000000    -0.029527   
C64      C      0.529860000000     0.151650000000     0.771500000000    -0.0295581  
C65      C      0.566710000000     0.165950000000     0.843510000000    -0.00912754 
C66      C      0.542570000000     0.117920000000     0.796110000000    -0.00882011 
C67      C      0.579150000000     0.233120000000     0.733600000000    -0.0542286  
C68      C      0.504140000000     0.259680000000     0.718950000000    -0.0539691  
C69      C      0.547640000000     0.216590000000     0.752470000000     0.0610503  
C70      C      0.552760000000     0.198300000000     0.817590000000    -0.0296963  
C71      C      0.535440000000     0.275100000000     0.698950000000     0.0610395  
C72      C      0.549040000000     0.298140000000     0.635610000000    -0.0289714  
C73      C      0.573310000000     0.262570000000     0.707470000000    -0.056332   
C74      C      0.531780000000     0.323630000000     0.604980000000    -0.00951994 
C75      C      0.513460000000     0.371310000000     0.657280000000    -0.00806917 
C76      C      0.510090000000     0.231130000000     0.745890000000    -0.056424   
C77      C      0.858460000000     0.278780000000     0.011270000000    -0.0297582  
C78      C      0.664000000000     0.217820000000     0.000730000000    -0.029452   
C79      C      0.648190000000     0.153240000000     0.051760000000    -0.007997   
C80      C      0.632970000000     0.188440000000     0.989110000000    -0.00879622 
C81      C      0.762530000000     0.200580000000     0.038390000000    -0.0539194  
C82      C      0.765280000000     0.280960000000     0.034900000000    -0.055742   
C83      C      0.728370000000     0.221160000000     0.030990000000     0.060767   
C84      C      0.674670000000     0.187370000000     0.060100000000    -0.0292786  
C85      C      0.799460000000     0.260090000000     0.042840000000     0.0608424  
C86      C      0.836430000000     0.316550000000     0.064970000000    -0.0291961  
C87      C      0.797480000000     0.219800000000     0.044720000000    -0.0544871  
C88      C      0.877890000000     0.330060000000     0.072890000000    -0.0102174  
C89      C      0.900610000000     0.290680000000     0.018290000000    -0.00969013 
C90      C      0.729910000000     0.261770000000     0.030190000000    -0.0556174  
C91      C      0.148270000000     0.713670000000     0.947480000000    -0.0293569  
C92      C      0.311330000000     0.834450000000     0.913300000000    -0.0290471  
C93      C      0.377890000000     0.816880000000     0.961600000000    -0.00786747 
C94      C      0.338740000000     0.867440000000     0.923280000000    -0.00845727 
C95      C      0.262400000000     0.767270000000     0.976640000000    -0.0540355  
C96      C      0.232940000000     0.738240000000     0.909490000000    -0.0558344  
C97      C      0.278580000000     0.779440000000     0.942720000000     0.0612952  
C98      C      0.348270000000     0.787500000000     0.947440000000    -0.0293375  
C99      C      0.217590000000     0.725220000000     0.943790000000     0.0611749  
C100     C      0.188640000000     0.666580000000     0.917400000000    -0.0289369  
C101     C      0.232500000000     0.740200000000     0.977190000000    -0.0539805  
C102     C      0.163250000000     0.632790000000     0.929320000000    -0.00835305 
C103     C      0.119830000000     0.683650000000     0.962780000000    -0.00795677 
C104     C      0.263960000000     0.764190000000     0.909000000000    -0.0559757  
C105     C      0.214100000000     0.491330000000     0.831330000000    -0.0293326  
C106     C      0.304820000000     0.509770000000     0.659520000000    -0.0293062  
C107     C      0.369980000000     0.457060000000     0.648110000000    -0.00854891 
C108     C      0.338880000000     0.523280000000     0.635340000000    -0.0092347  
C109     C      0.306850000000     0.464530000000     0.752830000000    -0.0541211  
C110     C      0.226440000000     0.467440000000     0.743400000000    -0.0558937  
C111     C      0.291580000000     0.473750000000     0.717640000000     0.0609156  
C112     C      0.333050000000     0.447030000000     0.669500000000    -0.029227   
C113     C      0.242020000000     0.458220000000     0.778770000000     0.061141   
C114     C      0.180510000000     0.435350000000     0.806290000000    -0.0293258  
C115     C      0.282400000000     0.456400000000     0.782870000000    -0.0544452  
C116     C      0.161350000000     0.427090000000     0.844180000000    -0.010414   
C117     C      0.197660000000     0.484370000000     0.870350000000    -0.00909276 
C118     C      0.250970000000     0.473960000000     0.712870000000    -0.055674   
C119     C      0.658070000000     0.552490000000     0.285440000000    -0.0291164  
C120     C      0.827770000000     0.554940000000     0.163480000000    -0.0292258  
C121     C      0.835750000000     0.479050000000     0.128770000000    -0.00899822 
C122     C      0.866700000000     0.544430000000     0.145680000000    -0.00866797 
C123     C      0.740370000000     0.529510000000     0.195900000000    -0.0558656  
C124     C      0.762320000000     0.536510000000     0.270810000000    -0.0543465  
C125     C      0.779950000000     0.527700000000     0.205680000000     0.0611666  
C126     C      0.799320000000     0.493300000000     0.148600000000    -0.0290838  
C127     C      0.722820000000     0.535450000000     0.261620000000     0.0612354  
C128     C      0.688710000000     0.492290000000     0.302530000000    -0.0292528  
C129     C      0.712020000000     0.532140000000     0.223720000000    -0.0559855  
C130     C      0.668540000000     0.491090000000     0.340370000000    -0.00870165 
C131     C      0.634540000000     0.553630000000     0.321800000000    -0.0101864  
C132     C      0.790550000000     0.532270000000     0.243210000000    -0.0543461  
C133     C      0.632910000000     0.280400000000     0.460620000000    -0.0293627  
C134     C      0.812160000000     0.191680000000     0.479550000000    -0.02911    
C135     C      0.840410000000     0.147010000000     0.415560000000    -0.00806313 
C136     C      0.839500000000     0.157760000000     0.487240000000    -0.00925465 
C137     C      0.721560000000     0.193060000000     0.427060000000    -0.054028   
C138     C      0.724250000000     0.271840000000     0.443180000000    -0.0559248  
C139     C      0.756090000000     0.209140000000     0.440650000000     0.0607466  
C140     C      0.814540000000     0.182710000000     0.412930000000    -0.0293868  
C141     C      0.689660000000     0.255530000000     0.429230000000     0.0608118  
C142     C      0.659320000000     0.315400000000     0.407070000000    -0.0292405  
C143     C      0.688820000000     0.216010000000     0.421210000000    -0.0544125  
C144     C      0.619660000000     0.333580000000     0.398920000000    -0.0105733  
C145     C      0.592380000000     0.296970000000     0.453500000000    -0.00968413 
C146     C      0.757460000000     0.249070000000     0.447840000000    -0.0559189  
C147     C      0.339100000000     0.688490000000     0.556120000000    -0.0292476  
C148     C      0.180120000000     0.815800000000     0.549680000000    -0.0293412  
C149     C      0.154930000000     0.840640000000     0.475400000000    -0.00893669 
C150     C      0.153520000000     0.850930000000     0.547310000000    -0.00782506 
C151     C      0.239200000000     0.751540000000     0.514800000000    -0.0560978  
C152     C      0.306660000000     0.786500000000     0.542010000000    -0.0545644  
C153     C      0.239370000000     0.791430000000     0.522240000000     0.0610655  
C154     C      0.183070000000     0.807430000000     0.483060000000    -0.028955   
C155     C      0.307010000000     0.747060000000     0.533690000000     0.0610926  
C156     C      0.363850000000     0.723450000000     0.501620000000    -0.0293724  
C157     C      0.273030000000     0.729780000000     0.519480000000    -0.0560511  
C158     C      0.404700000000     0.707550000000     0.508170000000    -0.00946063 
C159     C      0.379220000000     0.671080000000     0.563500000000    -0.0102935  
C160     C      0.273280000000     0.808480000000     0.536140000000    -0.0541583  
C161     C      0.335430000000     0.066930000000     0.788650000000    -0.0293122  
C162     C      0.179670000000     0.072000000000     0.654670000000    -0.0294737  
C163     C      0.174240000000     0.000590000000     0.611970000000    -0.00907749 
C164     C      0.158740000000     0.071890000000     0.616840000000    -0.00960385 
C165     C      0.275120000000     0.034850000000     0.681300000000    -0.0542804  
C166     C      0.248400000000     0.048240000000     0.753950000000    -0.0558655  
C167     C      0.235900000000     0.043740000000     0.686960000000     0.0609347  
C168     C      0.193320000000     0.003500000000     0.650420000000    -0.0294256  
C169     C      0.287370000000     0.037410000000     0.748190000000     0.0608647  
C170     C      0.297880000000     0.013580000000     0.812080000000    -0.0291713  
C171     C      0.300480000000     0.031430000000     0.711560000000    -0.0541399  
C172     C      0.330470000000     0.999690000000     0.837700000000    -0.00910891 
C173     C      0.371170000000     0.056100000000     0.811830000000    -0.00891736 
C174     C      0.222650000000     0.050260000000     0.723750000000    -0.0558798  
C175     C      0.700020000000     0.997710000000     0.152750000000    -0.0292924  
C176     C      0.801830000000     0.996690000000     0.314690000000    -0.0294049  
C177     C      0.837380000000     0.927280000000     0.345170000000    -0.00956055 
C178     C      0.820470000000     0.997850000000     0.353360000000    -0.00918109 
C179     C      0.774640000000     0.954600000000     0.238800000000    -0.0559278  
C180     C      0.696290000000     0.971120000000     0.251040000000    -0.054364   
C181     C      0.760610000000     0.957990000000     0.275700000000     0.0611126  
C182     C      0.816780000000     0.928680000000     0.307210000000    -0.0294139  
C183     C      0.710210000000     0.968370000000     0.214350000000     0.0612316  
C184     C      0.664360000000     0.940800000000     0.170460000000    -0.0291888  
C185     C      0.749420000000     0.958620000000     0.208420000000    -0.0561144  
C186     C      0.628610000000     0.952410000000     0.147830000000    -0.00866095 
C187     C      0.667390000000     0.012580000000     0.127700000000    -0.00898476 
C188     C      0.721150000000     0.965690000000     0.281370000000    -0.0543805  
C189     C      0.006180000000     0.842460000000     0.280150000000    -0.029112   
C190     C      0.040890000000     0.700080000000     0.140210000000    -0.0298006  
C191     C      0.032350000000     0.621170000000     0.166860000000    -0.0094799  
C192     C      0.053620000000     0.666570000000     0.115220000000    -0.00865401 
C193     C      0.010610000000     0.732630000000     0.224380000000    -0.0553433  
C194     C      0.075730000000     0.780340000000     0.228880000000    -0.0540167  
C195     C      0.044340000000     0.722890000000     0.204080000000     0.0604909  
C196     C      0.021780000000     0.656740000000     0.190110000000    -0.0294408  
C197     C      0.042630000000     0.789680000000     0.249810000000     0.0604543  
C198     C      0.064190000000     0.815990000000     0.309040000000    -0.0294033  
C199     C      0.010180000000     0.764930000000     0.247830000000    -0.0553188  
C200     C      0.073070000000     0.854220000000     0.328630000000    -0.00961192 
C201     C      0.012120000000     0.881380000000     0.299560000000    -0.0106417  
C202     C      0.076780000000     0.747140000000     0.206810000000    -0.0539973  
C203     C      0.981130000000     0.143190000000     0.693510000000    -0.0292015  
C204     C      0.961170000000     0.282740000000     0.836720000000    -0.0290289  
C205     C      0.001640000000     0.354270000000     0.817660000000    -0.00740305 
C206     C      0.978110000000     0.307140000000     0.868520000000    -0.00965544 
C207     C      0.007860000000     0.252590000000     0.748360000000    -0.054128   
C208     C      0.936430000000     0.216030000000     0.737770000000    -0.0556928  
C209     C      0.977200000000     0.260750000000     0.772830000000     0.0609105  
C210     C      0.981030000000     0.328280000000     0.789580000000    -0.0296339  
C211     C      0.967310000000     0.208450000000     0.712950000000     0.0610545  
C212     C      0.926520000000     0.175320000000     0.665810000000    -0.0291759  
C213     C      0.002810000000     0.227260000000     0.718530000000    -0.0540644  
C214     C      0.930220000000     0.152690000000     0.629030000000    -0.00927126 
C215     C      0.991990000000     0.121720000000     0.657920000000    -0.00803953 
C216     C      0.940990000000     0.242800000000     0.766770000000    -0.0555505  
H1       H      0.896580000000     0.980200000000     0.512510000000    -0.0617559  
H2       H      0.983310000000     0.963830000000     0.579860000000    -0.0643186  
H3       H      0.099660000000     0.018490000000     0.449920000000    -0.0623014  
H4       H      0.968400000000     0.895300000000     0.490850000000    -0.0636357  
H5       H      0.012690000000     0.035730000000     0.382970000000    -0.0636432  
H6       H      0.027340000000     0.104030000000     0.471200000000    -0.0633648  
H7       H      0.077090000000     0.401900000000     0.997770000000    -0.0635994  
H8       H      0.021080000000     0.436980000000     0.084910000000    -0.062088   
H9       H      0.943080000000     0.572110000000     0.987610000000    -0.0623577  
H10      H      0.104990000000     0.502380000000     0.045160000000    -0.0647525  
H11      H      0.002820000000     0.537430000000     0.899420000000    -0.0642357  
H12      H      0.917740000000     0.474480000000     0.940940000000    -0.0624778  
H13      H      0.424520000000     0.421890000000     0.486880000000    -0.0625387  
H14      H      0.475010000000     0.447780000000     0.390930000000    -0.063807   
H15      H      0.569010000000     0.582430000000     0.473590000000    -0.0626292  
H16      H      0.399000000000     0.518410000000     0.438510000000    -0.0618286  
H17      H      0.521010000000     0.556300000000     0.568150000000    -0.0627659  
H18      H      0.596120000000     0.484310000000     0.522100000000    -0.0636717  
H19      H      0.441340000000     0.096850000000     0.974840000000    -0.063193   
H20      H      0.489120000000     0.065830000000     0.068090000000    -0.0616713  
H21      H      0.561410000000     0.916170000000     0.987340000000    -0.0626397  
H22      H      0.402300000000     0.003210000000     0.029250000000    -0.0643107  
H23      H      0.509500000000     0.947490000000     0.892740000000    -0.0645147  
H24      H      0.597160000000     0.006360000000     0.934690000000    -0.0619563  
H25      H      0.397630000000     0.785410000000     0.207980000000     0.0404923  
H26      H      0.467640000000     0.650620000000     0.245960000000     0.0344592  
H27      H      0.441590000000     0.732590000000     0.330330000000     0.0338271  
H28      H      0.475170000000     0.819690000000     0.096660000000     0.0366812  
H29      H      0.432920000000     0.616280000000     0.294360000000     0.0370234  
H30      H      0.481310000000     0.854310000000     0.216690000000     0.0336609  
H31      H      0.436980000000     0.778710000000     0.134250000000     0.0341874  
H32      H      0.473150000000     0.910130000000     0.170790000000     0.0364901  
H33      H      0.455170000000     0.683570000000     0.379920000000     0.0381909  
H34      H      0.393020000000     0.733210000000     0.254010000000     0.0441334  
H35      H      0.482570000000     0.600960000000     0.294820000000     0.0390151  
H36      H      0.522390000000     0.776200000000     0.209870000000     0.0440472  
H37      H      0.505300000000     0.664860000000     0.278180000000     0.0369544  
H38      H      0.426950000000     0.837650000000     0.091430000000     0.0397042  
H39      H      0.414650000000     0.671380000000     0.350570000000     0.038696   
H40      H      0.433120000000     0.860360000000     0.198230000000     0.0366223  
H41      H      0.407960000000     0.817690000000     0.152270000000     0.0351446  
H42      H      0.517870000000     0.726080000000     0.257900000000     0.040385   
H43      H      0.489990000000     0.713050000000     0.327420000000     0.0371808  
H44      H      0.512060000000     0.877380000000     0.161760000000     0.0402502  
H45      H      0.485320000000     0.220080000000     0.761040000000     0.0405904  
H46      H      0.518920000000     0.346730000000     0.712370000000     0.0335992  
H47      H      0.547050000000     0.267520000000     0.626470000000     0.0340329  
H48      H      0.598110000000     0.160920000000     0.838340000000     0.0381622  
H49      H      0.481450000000     0.369160000000     0.660670000000     0.0394213  
H50      H      0.532060000000     0.142690000000     0.741680000000     0.0345665  
H51      H      0.571800000000     0.223840000000     0.821880000000     0.0336798  
H52      H      0.522230000000     0.093450000000     0.791890000000     0.0389311  
H53      H      0.552080000000     0.323810000000     0.580780000000     0.0398378  
H54      H      0.474950000000     0.269780000000     0.713470000000     0.0440567  
H55      H      0.521900000000     0.401210000000     0.665060000000     0.0367134  
H56      H      0.608320000000     0.222980000000     0.739080000000     0.0439198  
H57      H      0.564210000000     0.350320000000     0.687470000000     0.0368311  
H58      H      0.563230000000     0.175580000000     0.872980000000     0.0383936  
H59      H      0.504280000000     0.310310000000     0.595090000000     0.0363927  
H60      H      0.498940000000     0.158150000000     0.777810000000     0.0378765  
H61      H      0.522530000000     0.206560000000     0.825170000000     0.0373816  
H62      H      0.598250000000     0.274880000000     0.693550000000     0.0403596  
H63      H      0.580280000000     0.305520000000     0.639020000000     0.0353917  
H64      H      0.571760000000     0.108310000000     0.786680000000     0.0365879  
H65      H      0.704210000000     0.278860000000     0.025160000000     0.0394404  
H66      H      0.858600000000     0.249590000000     0.998340000000     0.0337447  
H67      H      0.820220000000     0.315090000000     0.091840000000     0.0337717  
H68      H      0.666490000000     0.126940000000     0.049040000000     0.040401   
H69      H      0.914700000000     0.268260000000     0.035900000000     0.0368264  
H70      H      0.678110000000     0.229280000000     0.975030000000     0.0338111  
H71      H      0.696760000000     0.177870000000     0.080880000000     0.0333275  
H72      H      0.605630000000     0.203970000000     0.982290000000     0.0366106  
H73      H      0.877120000000     0.359540000000     0.085030000000     0.0411374  
H74      H      0.765470000000     0.311990000000     0.032410000000     0.0395762  
H75      H      0.916110000000     0.291810000000     0.991060000000     0.0399647  
H76      H      0.761950000000     0.169380000000     0.039390000000     0.0436784  
H77      H      0.844670000000     0.299180000000     0.991210000000     0.0389088  
H78      H      0.628590000000     0.148280000000     0.076010000000     0.0371427  
H79      H      0.890750000000     0.310530000000     0.094220000000     0.0371973  
H80      H      0.649530000000     0.242340000000     0.015230000000     0.0332836  
H81      H      0.657830000000     0.211340000000     0.073010000000     0.0364532  
H82      H      0.823430000000     0.203180000000     0.050370000000     0.0436113  
H83      H      0.822440000000     0.338370000000     0.046590000000     0.0365191  
H84      H      0.642540000000     0.174440000000     0.962660000000     0.0394554  
H85      H      0.276060000000     0.772410000000     0.882270000000     0.0397251  
H86      H      0.147720000000     0.739170000000     0.966400000000     0.033649   
H87      H      0.218900000000     0.655980000000     0.913740000000     0.033515   
H88      H      0.374410000000     0.819780000000     0.992420000000     0.0410952  
H89      H      0.121940000000     0.683590000000     0.993840000000     0.0408507  
H90      H      0.281860000000     0.846590000000     0.908400000000     0.0334893  
H91      H      0.346940000000     0.763350000000     0.967920000000     0.0337621  
H92      H      0.347310000000     0.882650000000     0.897150000000     0.0385863  
H93      H      0.156190000000     0.615130000000     0.904240000000     0.038559   
H94      H      0.221750000000     0.727830000000     0.883100000000     0.0396347  
H95      H      0.089660000000     0.692520000000     0.955870000000     0.0352637  
H96      H      0.273470000000     0.778480000000     0.002830000000     0.0444703  
H97      H      0.138840000000     0.723560000000     0.919260000000     0.0358453  
H98      H      0.407680000000     0.805600000000     0.956770000000     0.0354472  
H99      H      0.180600000000     0.613930000000     0.948160000000     0.0377592  
H100     H      0.321380000000     0.820870000000     0.886780000000     0.0339924  
H101     H      0.357860000000     0.775260000000     0.920150000000     0.0361797  
H102     H      0.220870000000     0.730720000000     0.003790000000     0.0444652  
H103     H      0.178280000000     0.677560000000     0.889880000000     0.033891   
H104     H      0.322390000000     0.888760000000     0.940400000000     0.037278   
H105     H      0.237980000000     0.480150000000     0.686020000000     0.0397684  
H106     H      0.242750000000     0.505800000000     0.834510000000     0.0335053  
H107     H      0.184420000000     0.407650000000     0.791080000000     0.0340417  
H108     H      0.393690000000     0.462500000000     0.668550000000     0.0389237  
H109     H      0.219260000000     0.467770000000     0.886920000000     0.0372759  
H110     H      0.291780000000     0.535390000000     0.673420000000     0.0334026  
H111     H      0.340420000000     0.424580000000     0.690590000000     0.0336182  
H112     H      0.327130000000     0.538360000000     0.610330000000     0.0383032  
H113     H      0.131630000000     0.415750000000     0.839250000000     0.0408735  
H114     H      0.195510000000     0.469890000000     0.739110000000     0.039862   
H115     H      0.193610000000     0.512790000000     0.884160000000     0.03935    
H116     H      0.337980000000     0.463790000000     0.756960000000     0.0437014  
H117     H      0.194620000000     0.510990000000     0.815370000000     0.0383298  
H118     H      0.378690000000     0.431670000000     0.631040000000     0.0396398  
H119     H      0.178250000000     0.404130000000     0.858500000000     0.0381373  
H120     H      0.282470000000     0.496590000000     0.641000000000     0.0349101  
H121     H      0.310970000000     0.434640000000     0.650170000000     0.0376886  
H122     H      0.294950000000     0.449850000000     0.809910000000     0.0439281  
H123     H      0.160580000000     0.454050000000     0.789840000000     0.0359249  
H124     H      0.355860000000     0.544940000000     0.651410000000     0.0374278  
H125     H      0.820860000000     0.531430000000     0.251170000000     0.0439093  
H126     H      0.663350000000     0.582580000000     0.275920000000     0.0338377  
H127     H      0.716790000000     0.476630000000     0.305230000000     0.0337037  
H128     H      0.850000000000     0.456950000000     0.146640000000     0.0375984  
H129     H      0.648080000000     0.574970000000     0.340980000000     0.0386507  
H130     H      0.833260000000     0.576380000000     0.186050000000     0.033462   
H131     H      0.783620000000     0.467890000000     0.160130000000     0.0333335  
H132     H      0.877680000000     0.569760000000     0.129800000000     0.0393341  
H133     H      0.661400000000     0.460520000000     0.346830000000     0.0386777  
H134     H      0.771160000000     0.538620000000     0.299810000000     0.044175   
H135     H      0.604830000000     0.564190000000     0.315300000000     0.0406348  
H136     H      0.731120000000     0.527080000000     0.167100000000     0.0397542  
H137     H      0.640470000000     0.537430000000     0.263810000000     0.0352522  
H138     H      0.826840000000     0.464340000000     0.102490000000     0.0382886  
H139     H      0.689030000000     0.501480000000     0.362180000000     0.0378108  
H140     H      0.808380000000     0.568650000000     0.142390000000     0.0371836  
H141     H      0.780160000000     0.507700000000     0.127760000000     0.0348719  
H142     H      0.681900000000     0.530650000000     0.215460000000     0.0397806  
H143     H      0.670830000000     0.477040000000     0.281180000000     0.0376029  
H144     H      0.888000000000     0.538390000000     0.168310000000     0.0385758  
H145     H      0.783800000000     0.262640000000     0.457670000000     0.039922   
H146     H      0.629510000000     0.251370000000     0.473500000000     0.0339483  
H147     H      0.675340000000     0.312070000000     0.380260000000     0.0340482  
H148     H      0.822790000000     0.121250000000     0.408090000000     0.0404293  
H149     H      0.575820000000     0.276110000000     0.436090000000     0.0370168  
H150     H      0.792740000000     0.195450000000     0.504150000000     0.0337969  
H151     H      0.797110000000     0.180540000000     0.386790000000     0.0337114  
H152     H      0.862430000000     0.167340000000     0.507080000000     0.0392424  
H153     H      0.624040000000     0.362860000000     0.387040000000     0.0409624  
H154     H      0.725780000000     0.302030000000     0.450520000000     0.0399371  
H155     H      0.577130000000     0.299910000000     0.480730000000     0.0399214  
H156     H      0.720080000000     0.162510000000     0.420980000000     0.0444899  
H157     H      0.648830000000     0.299150000000     0.480730000000     0.0384732  
H158     H      0.863860000000     0.149250000000     0.394290000000     0.0359175  
H159     H      0.604890000000     0.315840000000     0.377290000000     0.0375273  
H160     H      0.829760000000     0.218410000000     0.476440000000     0.0346166  
H161     H      0.832670000000     0.209230000000     0.410910000000     0.0365876  
H162     H      0.662400000000     0.202860000000     0.410920000000     0.0443206  
H163     H      0.675860000000     0.335410000000     0.425420000000     0.0362707  
H164     H      0.822800000000     0.134760000000     0.501780000000     0.036687   
H165     H      0.273790000000     0.839020000000     0.542400000000     0.0445839  
H166     H      0.323730000000     0.691940000000     0.583270000000     0.0339474  
H167     H      0.366550000000     0.752460000000     0.488570000000     0.0340908  
H168     H      0.170900000000     0.863740000000     0.460250000000     0.0368493  
H169     H      0.394340000000     0.689470000000     0.584400000000     0.0372526  
H170     H      0.197320000000     0.818020000000     0.575970000000     0.0335041  
H171     H      0.202710000000     0.804250000000     0.458530000000     0.0338138  
H172     H      0.129620000000     0.847680000000     0.567990000000     0.0354422  
H173     H      0.419640000000     0.704820000000     0.480760000000     0.0398762  
H174     H      0.332640000000     0.800360000000     0.552470000000     0.0443262  
H175     H      0.375710000000     0.641950000000     0.575970000000     0.0411164  
H176     H      0.213350000000     0.737280000000     0.504720000000     0.0399027  
H177     H      0.322450000000     0.667930000000     0.538450000000     0.0364613  
H178     H      0.131820000000     0.830380000000     0.456070000000     0.0387947  
H179     H      0.421160000000     0.728630000000     0.525410000000     0.0367522  
H180     H      0.162580000000     0.788860000000     0.551280000000     0.0361818  
H181     H      0.166160000000     0.780230000000     0.485970000000     0.0342181  
H182     H      0.272490000000     0.699640000000     0.511830000000     0.0399681  
H183     H      0.347900000000     0.704330000000     0.481870000000     0.0387414  
H184     H      0.170380000000     0.876860000000     0.555800000000     0.0407887  
H185     H      0.192490000000     0.056440000000     0.729430000000     0.0399311  
H186     H      0.345490000000     0.082340000000     0.763110000000     0.0337797  
H187     H      0.279750000000     0.988310000000     0.804170000000     0.0335134  
H188     H      0.197190000000     0.002110000000     0.590160000000     0.0391505  
H189     H      0.393380000000     0.043480000000     0.792870000000     0.0385988  
H190     H      0.192790000000     0.100940000000     0.659180000000     0.0340385  
H191     H      0.216380000000     0.981090000000     0.652080000000     0.0338923  
H192     H      0.133790000000     0.092140000000     0.618330000000     0.0390901  
H193     H      0.317740000000     0.992420000000     0.865410000000     0.0382415  
H194     H      0.237410000000     0.053910000000     0.781730000000     0.0399332  
H195     H      0.383900000000     0.082810000000     0.823920000000     0.0391081  
H196     H      0.285750000000     0.029290000000     0.653310000000     0.0443822  
H197     H      0.316490000000     0.086990000000     0.804740000000     0.0370827  
H198     H      0.160050000000     0.971880000000     0.609750000000     0.0389563  
H199     H      0.342580000000     0.972490000000     0.826050000000     0.0381518  
H200     H      0.157750000000     0.066830000000     0.676960000000     0.0362545  
H201     H      0.171550000000     0.997420000000     0.672690000000     0.0375179  
H202     H      0.330420000000     0.023480000000     0.706550000000     0.0442247  
H203     H      0.279320000000     0.034220000000     0.827870000000     0.0349622  
H204     H      0.179020000000     0.083060000000     0.595220000000     0.0373427  
H205     H      0.709950000000     0.968870000000     0.309500000000     0.044342   
H206     H      0.716800000000     0.022860000000     0.163340000000     0.0337326  
H207     H      0.654610000000     0.922540000000     0.194290000000     0.0337574  
H208     H      0.817020000000     0.914970000000     0.366130000000     0.0370939  
H209     H      0.653920000000     0.038120000000     0.141320000000     0.0380363  
H210     H      0.778360000000     0.018740000000     0.313990000000     0.0340008  
H211     H      0.804160000000     0.899800000000     0.301250000000     0.0338371  
H212     H      0.833750000000     0.026770000000     0.357300000000     0.0396109  
H213     H      0.617090000000     0.926470000000     0.133280000000     0.0393688  
H214     H      0.666120000000     0.978090000000     0.256090000000     0.0443006  
H215     H      0.680300000000     0.022800000000     0.100960000000     0.0383886  
H216     H      0.805020000000     0.949440000000     0.233220000000     0.039912   
H217     H      0.719850000000     0.979490000000     0.135650000000     0.0349012  
H218     H      0.862580000000     0.907410000000     0.343040000000     0.0390124  
H219     H      0.605680000000     0.962400000000     0.167460000000     0.0386167  
H220     H      0.823700000000     0.004370000000     0.292980000000     0.0377369  
H221     H      0.838800000000     0.935300000000     0.285370000000     0.0362774  
H222     H      0.760940000000     0.955360000000     0.180480000000     0.0399685  
H223     H      0.684400000000     0.923260000000     0.152910000000     0.0370654  
H224     H      0.797400000000     0.994340000000     0.374830000000     0.0388726  
H225     H      0.102940000000     0.740430000000     0.191330000000     0.043612   
H226     H      0.991040000000     0.847460000000     0.253090000000     0.0337237  
H227     H      0.092220000000     0.800970000000     0.303870000000     0.0333962  
H228     H      0.061280000000     0.610680000000     0.176100000000     0.0373336  
H229     H      0.026370000000     0.901310000000     0.279450000000     0.0378226  
H230     H      0.058720000000     0.725690000000     0.132690000000     0.0334794  
H231     H      0.025730000000     0.649670000000     0.220220000000     0.0338632  
H232     H      0.047120000000     0.674240000000     0.085670000000     0.037808   
H233     H      0.086930000000     0.847820000000     0.356020000000     0.0395576  
H234     H      0.101120000000     0.798700000000     0.230150000000     0.0435358  
H235     H      0.983300000000     0.893800000000     0.306550000000     0.0412936  
H236     H      0.984640000000     0.715260000000     0.222840000000     0.0396458  
H237     H      0.987310000000     0.824410000000     0.298350000000     0.0362732  
H238     H      0.011030000000     0.597950000000     0.172910000000     0.0390969  
H239     H      0.094230000000     0.870630000000     0.311390000000     0.0375825  
H240     H      0.009900000000     0.707270000000     0.134730000000     0.0380212  
H241     H      0.990630000000     0.663490000000     0.185090000000     0.0365605  
H242     H      0.984180000000     0.770440000000     0.263840000000     0.0395973  
H243     H      0.046240000000     0.797340000000     0.327600000000     0.038458   
H244     H      0.085560000000     0.662880000000     0.117830000000     0.039328   
H245     H      0.916370000000     0.248770000000     0.784580000000     0.0398272  
H246     H      0.007930000000     0.146630000000     0.710600000000     0.0335004  
H247     H      0.913080000000     0.203800000000     0.659700000000     0.0337092  
H248     H      0.033480000000     0.349650000000     0.815210000000     0.0396309  
H249     H      0.019040000000     0.134640000000     0.646430000000     0.0405558  
H250     H      0.961790000000     0.251920000000     0.845350000000     0.0335118  
H251     H      0.995400000000     0.332060000000     0.761930000000     0.0333749  
H252     H      0.956540000000     0.308420000000     0.891630000000     0.0397901  
H253     H      0.901860000000     0.138950000000     0.622490000000     0.0374751  
H254     H      0.908730000000     0.201750000000     0.734780000000     0.0398115  
H255     H      0.998830000000     0.091230000000     0.665010000000     0.0378146  
H256     H      0.035780000000     0.266320000000     0.752310000000     0.0437092  
H257     H      0.960070000000     0.126020000000     0.710290000000     0.0369486  
H258     H      0.995800000000     0.384840000000     0.810110000000     0.0362317  
H259     H      0.935940000000     0.173520000000     0.606020000000     0.0386842  
H260     H      0.930360000000     0.291290000000     0.832300000000     0.0351842  
H261     H      0.950120000000     0.337150000000     0.786510000000     0.0376968  
H262     H      0.026970000000     0.221610000000     0.699950000000     0.0438535  
H263     H      0.906740000000     0.159340000000     0.684960000000     0.0337625  
H264     H      0.004130000000     0.292150000000     0.879800000000     0.03626    
Mg1      Mg     0.060080000000     0.957010000000     0.542950000000     0.789791   
Mg2      Mg     0.037260000000     0.063240000000     0.543040000000     0.787209   
Mg3      Mg     0.958900000000     0.935660000000     0.418900000000     0.784433   
Mg4      Mg     0.930090000000     0.058460000000     0.523790000000     0.783612   
Mg5      Mg     0.065900000000     0.940990000000     0.438820000000     0.786362   
Mg6      Mg     0.935610000000     0.042020000000     0.419660000000     0.78906    
Mg7      Mg     0.988900000000     0.517510000000     0.081190000000     0.786527   
Mg8      Mg     0.922970000000     0.456080000000     0.022190000000     0.787593   
Mg9      Mg     0.100160000000     0.517450000000     0.964920000000     0.795748   
Mg10     Mg     0.995470000000     0.390590000000     0.977050000000     0.787181   
Mg11     Mg     0.026330000000     0.584810000000     0.006730000000     0.78542    
Mg12     Mg     0.033910000000     0.458650000000     0.903790000000     0.787714   
Mg13     Mg     0.510700000000     0.525560000000     0.388170000000     0.786355   
Mg14     Mg     0.580520000000     0.464050000000     0.443210000000     0.78819    
Mg15     Mg     0.414490000000     0.540360000000     0.517740000000     0.784011   
Mg16     Mg     0.509010000000     0.405110000000     0.497590000000     0.787726   
Mg17     Mg     0.485440000000     0.598840000000     0.461730000000     0.786877   
Mg18     Mg     0.484220000000     0.478270000000     0.571440000000     0.788372   
Mg19     Mg     0.514780000000     0.982360000000     0.072870000000     0.786528   
Mg20     Mg     0.588990000000     0.032850000000     0.013810000000     0.786813   
Mg21     Mg     0.410480000000     0.980770000000     0.950070000000     0.791747   
Mg22     Mg     0.525540000000     0.099420000000     0.958550000000     0.785592   
Mg23     Mg     0.476150000000     0.912000000000     0.001870000000     0.784911   
Mg24     Mg     0.485390000000     0.028510000000     0.888850000000     0.786311   
N1       N      0.464420000000     0.637140000000     0.340820000000    -0.163387   
N2       N      0.450690000000     0.693630000000     0.285220000000    -0.113741   
N3       N      0.464930000000     0.812890000000     0.175680000000    -0.112981   
N4       N      0.465380000000     0.873200000000     0.123470000000    -0.16239    
N5       N      0.523280000000     0.363380000000     0.617710000000    -0.163246   
N6       N      0.527550000000     0.303800000000     0.670660000000    -0.113283   
N7       N      0.554820000000     0.185450000000     0.778430000000    -0.113969   
N8       N      0.545230000000     0.130090000000     0.835570000000    -0.163942   
N9       N      0.901310000000     0.327730000000     0.038430000000    -0.163932   
N10      N      0.837070000000     0.278250000000     0.046940000000    -0.113966   
N11      N      0.692960000000     0.199510000000     0.025080000000    -0.112202   
N12      N      0.625000000000     0.157950000000     0.017180000000    -0.16266    
N13      N      0.127040000000     0.644020000000     0.948980000000    -0.162993   
N14      N      0.187140000000     0.696680000000     0.946130000000    -0.112346   
N15      N      0.310470000000     0.806450000000     0.944020000000    -0.112419   
N16      N      0.373840000000     0.855500000000     0.944370000000    -0.162967   
N17      N      0.161390000000     0.461870000000     0.868060000000    -0.163868   
N18      N      0.218400000000     0.454210000000     0.811980000000    -0.113815   
N19      N      0.318510000000     0.482010000000     0.687640000000    -0.113148   
N20      N      0.365340000000     0.491630000000     0.624280000000    -0.16336    
N21      N      0.633610000000     0.515760000000     0.340860000000    -0.163649   
N22      N      0.695190000000     0.532620000000     0.291880000000    -0.113532   
N23      N      0.810210000000     0.519890000000     0.178770000000    -0.113294   
N24      N      0.864140000000     0.510140000000     0.121170000000    -0.163668   
N25      N      0.595590000000     0.333770000000     0.433070000000    -0.163209   
N26      N      0.654180000000     0.277440000000     0.425050000000    -0.114072   
N27      N      0.789200000000     0.184010000000     0.445760000000    -0.112769   
N28      N      0.857340000000     0.140960000000     0.453200000000    -0.162439   
N29      N      0.402090000000     0.670750000000     0.528630000000    -0.163768   
N30      N      0.343140000000     0.726280000000     0.537520000000    -0.114218   
N31      N      0.205630000000     0.815570000000     0.516960000000    -0.112691   
N32      N      0.137310000000     0.857590000000     0.509480000000    -0.162786   
N33      N      0.362530000000     0.027850000000     0.841750000000    -0.162794   
N34      N      0.314480000000     0.031680000000     0.778580000000    -0.113139   
N35      N      0.210060000000     0.042130000000     0.655100000000    -0.113613   
N36      N      0.146610000000     0.032550000000     0.605980000000    -0.163686   
N37      N      0.636630000000     0.983630000000     0.120670000000    -0.163436   
N38      N      0.683490000000     0.975760000000     0.184060000000    -0.113248   
N39      N      0.785900000000     0.958040000000     0.307940000000    -0.113759   
N40      N      0.848880000000     0.966290000000     0.357610000000    -0.163953   
N41      N      0.037380000000     0.877340000000     0.332710000000    -0.162926   
N42      N      0.043940000000     0.823580000000     0.273590000000    -0.113547   
N43      N      0.046710000000     0.689550000000     0.179640000000    -0.113257   
N44      N      0.034440000000     0.630350000000     0.126540000000    -0.163381   
N45      N      0.961450000000     0.123240000000     0.628850000000    -0.162473   
N46      N      0.964910000000     0.180610000000     0.682890000000    -0.112532   
N47      N      0.984080000000     0.288320000000     0.802490000000    -0.112992   
N48      N      0.989790000000     0.346400000000     0.856680000000    -0.163358   
O1       O      0.016300000000     0.002710000000     0.552170000000    -0.413102   
O2       O      0.923170000000     0.016870000000     0.476740000000    -0.407243   
O3       O      0.952720000000     0.009230000000     0.560500000000    -0.339896   
O4       O      0.076710000000     0.045760000000     0.494530000000    -0.338741   
O5       O      0.057010000000     0.900440000000     0.389450000000    -0.338992   
O6       O      0.999690000000     0.085630000000     0.591760000000    -0.337749   
O7       O      0.012440000000     0.917350000000     0.521090000000    -0.341199   
O8       O      0.989570000000     0.073080000000     0.502390000000    -0.412231   
O9       O      0.888440000000     0.005050000000     0.392280000000    -0.341835   
O10      O      0.996680000000     0.912710000000     0.369910000000    -0.335782   
O11      O      0.919470000000     0.953360000000     0.467580000000    -0.337479   
O12      O      0.898830000000     0.106190000000     0.490110000000    -0.338015   
O13      O      0.088940000000     0.054030000000     0.581990000000    -0.340227   
O14      O      0.096640000000     0.893080000000     0.472460000000    -0.338965   
O15      O      0.006420000000     0.926010000000     0.459730000000    -0.412705   
O16      O      0.979660000000     0.996420000000     0.410020000000    -0.411885   
O17      O      0.043370000000     0.990390000000     0.402290000000    -0.340056   
O18      O      0.892240000000     0.090300000000     0.429970000000    -0.340125   
O19      O      0.072920000000     0.982200000000     0.485950000000    -0.408647   
O20      O      0.983150000000     0.082040000000     0.441110000000    -0.341183   
O21      O      0.102970000000     0.908530000000     0.532750000000    -0.34123    
O22      O      0.939410000000     0.099590000000     0.572990000000    -0.337345   
O23      O      0.107400000000     0.993530000000     0.571070000000    -0.341098   
O24      O      0.907250000000     0.944900000000     0.380040000000    -0.340674   
O25      O      0.978880000000     0.460930000000     0.053140000000    -0.411822   
O26      O      0.043990000000     0.427490000000     0.958220000000    -0.4126     
O27      O      0.009760000000     0.406840000000     0.037850000000    -0.338587   
O28      O      0.924710000000     0.519480000000     0.003880000000    -0.338164   
O29      O      0.075850000000     0.621990000000     0.983940000000    -0.338351   
O30      O      0.915450000000     0.392080000000     0.038880000000    -0.338064   
O31      O      0.053600000000     0.509860000000     0.070970000000    -0.340967   
O32      O      0.954650000000     0.440560000000     0.970140000000    -0.411897   
O33      O      0.098530000000     0.452320000000     0.886820000000    -0.337763   
O34      O      0.110740000000     0.580490000000     0.950120000000    -0.343314   
O35      O      0.096550000000     0.454520000000     0.983040000000    -0.34155    
O36      O      0.985790000000     0.368100000000     0.916980000000    -0.338897   
O37      O      0.890670000000     0.474140000000     0.074390000000    -0.343213   
O38      O      0.035840000000     0.607960000000     0.066450000000    -0.339526   
O39      O      0.067280000000     0.534640000000     0.015180000000    -0.412728   
O40      O      0.045010000000     0.514530000000     0.931860000000    -0.413757   
O41      O      0.012520000000     0.567870000000     0.946520000000    -0.341017   
O42      O      0.018480000000     0.402650000000     0.874810000000    -0.341895   
O43      O      0.978080000000     0.547510000000     0.026270000000    -0.409339   
O44      O      0.969140000000     0.466830000000     0.915070000000    -0.339546   
O45      O      0.003810000000     0.574410000000     0.109830000000    -0.338731   
O46      O      0.945920000000     0.353580000000     0.998490000000    -0.34151    
O47      O      0.924340000000     0.523540000000     0.097730000000    -0.338114   
O48      O      0.134030000000     0.498060000000     0.914200000000    -0.343636   
O49      O      0.521820000000     0.470070000000     0.417320000000    -0.413271   
O50      O      0.465490000000     0.446550000000     0.519600000000    -0.410087   
O51      O      0.489090000000     0.419210000000     0.438140000000    -0.340879   
O52      O      0.583000000000     0.528140000000     0.458570000000    -0.338825   
O53      O      0.441340000000     0.640000000000     0.486750000000    -0.341511   
O54      O      0.584670000000     0.398780000000     0.429720000000    -0.337135   
O55      O      0.447310000000     0.521770000000     0.406860000000    -0.338456   
O56      O      0.553700000000     0.452270000000     0.498390000000    -0.412892   
O57      O      0.422010000000     0.476610000000     0.594760000000    -0.338995   
O58      O      0.411890000000     0.605590000000     0.531130000000    -0.337915   
O59      O      0.410840000000     0.476100000000     0.502650000000    -0.337979   
O60      O      0.523610000000     0.384130000000     0.557030000000    -0.34042    
O61      O      0.608480000000     0.479100000000     0.387840000000    -0.342686   
O62      O      0.469220000000     0.618860000000     0.402140000000    -0.338897   
O63      O      0.440960000000     0.551340000000     0.461880000000    -0.409344   
O64      O      0.473750000000     0.534020000000     0.542470000000    -0.41254    
O65      O      0.506170000000     0.584930000000     0.521150000000    -0.339335   
O66      O      0.498310000000     0.421990000000     0.601090000000    -0.340929   
O67      O      0.529070000000     0.557790000000     0.439710000000    -0.411436   
O68      O      0.547680000000     0.481420000000     0.553530000000    -0.34066    
O69      O      0.494970000000     0.581350000000     0.358050000000    -0.340187   
O70      O      0.553760000000     0.364080000000     0.473000000000    -0.339887   
O71      O      0.573380000000     0.527890000000     0.365160000000    -0.337622   
O72      O      0.387180000000     0.526550000000     0.574270000000    -0.340051   
O73      O      0.530900000000     0.035530000000     0.041290000000    -0.410949   
O74      O      0.474720000000     0.065290000000     0.939820000000    -0.411367   
O75      O      0.506140000000     0.090440000000     0.019570000000    -0.337801   
O76      O      0.583310000000     0.968350000000     0.000670000000    -0.338622   
O77      O      0.425170000000     0.876930000000     0.979350000000    -0.33869    
O78      O      0.601010000000     0.097220000000     0.025570000000    -0.337105   
O79      O      0.451420000000     0.993810000000     0.058420000000    -0.340909   
O80      O      0.561690000000     0.045660000000     0.958760000000    -0.411421   
O81      O      0.422790000000     0.038100000000     0.866820000000    -0.336147   
O82      O      0.395230000000     0.917450000000     0.940350000000    -0.342333   
O83      O      0.418440000000     0.044800000000     0.962980000000    -0.340808   
O84      O      0.541160000000     0.114570000000     0.897570000000    -0.339355   
O85      O      0.616800000000     0.017440000000     0.069330000000    -0.34186    
O86      O      0.462390000000     0.893580000000     0.062640000000    -0.338009   
O87      O      0.438750000000     0.965730000000     0.003900000000    -0.410392   
O88      O      0.467660000000     0.976530000000     0.920630000000    -0.413896   
O89      O      0.494570000000     0.922410000000     0.941480000000    -0.34162    
O90      O      0.507750000000     0.080030000000     0.856020000000    -0.34103    
O91      O      0.526120000000     0.947170000000     0.021120000000    -0.409993   
O92      O      0.548370000000     0.016060000000     0.905040000000    -0.3392     
O93      O      0.495200000000     0.928680000000     0.104300000000    -0.33909    
O94      O      0.577710000000     0.133490000000     0.979180000000    -0.340314   
O95      O      0.577450000000     0.973090000000     0.093790000000    -0.338309   
O96      O      0.382120000000     0.997270000000     0.895030000000    -0.340762   


