data_structure

_audit_creation_method RASPA-1.0
_audit_creation_date 2023-5-9
_audit_author_name 'Poobodin Mano'

_cell_length_a    28.1802
_cell_length_b    30.0362
_cell_length_c    28.411
_cell_angle_alpha 89.9988
_cell_angle_beta  90.0003
_cell_angle_gamma 89.9991
_cell_volume      24047.8

_symmetry_cell_setting          triclinic
_symmetry_space_group_name_Hall 'P 1'
_symmetry_space_group_name_H-M  'P 1'
_symmetry_Int_Tables_number     1

_symmetry_equiv_pos_as_xyz 'x,y,z'

loop_
_atom_site_label
_atom_site_type_symbol
_atom_site_fract_x
_atom_site_fract_y
_atom_site_fract_z
_atom_site_charge
C1       C      0.989390000000     0.071420000000     0.487210000000     0.354847   
C2       C      0.015550000000     0.850580000000     0.353130000000     0.377321   
C3       C      0.838270000000     0.925100000000     0.402270000000     0.370462   
C4       C      0.991020000000     0.977660000000     0.396810000000     0.356904   
C5       C      0.846910000000     0.086070000000     0.505030000000     0.371377   
C6       C      0.987810000000     0.094010000000     0.649390000000     0.375041   
C7       C      0.898970000000     0.943360000000     0.533610000000     0.355247   
C8       C      0.102040000000     0.992940000000     0.473720000000     0.360072   
C9       C      0.008620000000     0.964860000000     0.612600000000     0.358277   
C10      C      0.005630000000     0.868780000000     0.518210000000     0.354859   
C11      C      0.162440000000     0.012120000000     0.601650000000     0.372821   
C12      C      0.147120000000     0.846800000000     0.506160000000     0.376356   
C13      C      0.943840000000     0.442830000000     0.922800000000     0.356762   
C14      C      0.129600000000     0.618080000000     0.004340000000     0.373607   
C15      C      0.177550000000     0.458150000000     0.905010000000     0.371051   
C16      C      0.039090000000     0.537330000000     0.925460000000     0.353112   
C17      C      0.017370000000     0.343120000000     0.866970000000     0.370164   
C18      C      0.888180000000     0.326300000000     0.016280000000     0.380287   
C19      C      0.088830000000     0.401870000000     0.000800000000     0.358289   
C20      C      0.929730000000     0.544280000000     0.005490000000     0.3618     
C21      C      0.976210000000     0.411630000000     0.085260000000     0.356154   
C22      C      0.070220000000     0.499040000000     0.086800000000     0.353512   
C23      C      0.834400000000     0.492240000000     0.096020000000     0.37544    
C24      C      0.996410000000     0.597530000000     0.146840000000     0.374571   
C25      C      0.591970000000     0.448270000000     0.566600000000     0.356403   
C26      C      0.403350000000     0.631730000000     0.518620000000     0.373084   
C27      C      0.367580000000     0.474170000000     0.628870000000     0.37004    
C28      C      0.501740000000     0.548620000000     0.578440000000     0.355507   
C29      C      0.522300000000     0.353760000000     0.640410000000     0.379584   
C30      C      0.620420000000     0.324770000000     0.471160000000     0.379984   
C31      C      0.431660000000     0.412870000000     0.520840000000     0.357006   
C32      C      0.592870000000     0.545090000000     0.479600000000     0.359626   
C33      C      0.526010000000     0.412370000000     0.415830000000     0.363845   
C34      C      0.436720000000     0.505500000000     0.429450000000     0.352829   
C35      C      0.665420000000     0.485410000000     0.375100000000     0.374466   
C36      C      0.504260000000     0.596630000000     0.350700000000     0.377122   
C37      C      0.505900000000     0.873780000000     0.994530000000     0.356063   
C38      C      0.662730000000     0.086500000000     0.981020000000     0.371815   
C39      C      0.622490000000     0.992620000000     0.151720000000     0.368272   
C40      C      0.613270000000     0.959290000000     0.993890000000     0.356981   
C41      C      0.497640000000     0.847740000000     0.135240000000     0.379875   
C42      C      0.341020000000     0.872050000000     0.012490000000     0.377093   
C43      C      0.487870000000     0.996680000000     0.102770000000     0.354994   
C44      C      0.524930000000     0.956500000000     0.894020000000     0.35934    
C45      C      0.396580000000     0.996280000000     0.995060000000     0.363398   
C46      C      0.499310000000     0.077160000000     0.000380000000     0.352448   
C47      C      0.391210000000     0.953630000000     0.839520000000     0.372051   
C48      C      0.503490000000     0.108830000000     0.863120000000     0.373451   
C49      C      0.448600000000     0.685570000000     0.277430000000     0.0123621  
C50      C      0.410290000000     0.751960000000     0.246830000000    -0.0436376  
C51      C      0.449190000000     0.801400000000     0.187010000000    -0.0261121  
C52      C      0.451080000000     0.762790000000     0.220940000000     0.0118796  
C53      C      0.540140000000     0.794290000000     0.184640000000    -0.024565   
C54      C      0.533700000000     0.747440000000     0.201810000000     0.0133683  
C55      C      0.409480000000     0.714360000000     0.275660000000    -0.0442041  
C56      C      0.491190000000     0.735170000000     0.223920000000    -0.00640851 
C57      C      0.572190000000     0.717830000000     0.201600000000    -0.0428328  
C58      C      0.568230000000     0.676190000000     0.222910000000    -0.0438165  
C59      C      0.521910000000     0.619490000000     0.269350000000    -0.027023   
C60      C      0.526970000000     0.664810000000     0.247750000000     0.0146816  
C61      C      0.447410000000     0.646180000000     0.310520000000    -0.0266708  
C62      C      0.488850000000     0.694910000000     0.249690000000    -0.00708066 
C63      C      0.495110000000     0.179250000000     0.758450000000     0.0139112  
C64      C      0.509950000000     0.202040000000     0.677890000000    -0.0432846  
C65      C      0.545630000000     0.277310000000     0.660170000000    -0.0253997  
C66      C      0.524720000000     0.244110000000     0.693630000000     0.0138034  
C67      C      0.536590000000     0.336210000000     0.724050000000    -0.0267502  
C68      C      0.534090000000     0.297240000000     0.757870000000     0.0122615  
C69      C      0.493450000000     0.170470000000     0.709980000000    -0.0435894  
C70      C      0.524070000000     0.253920000000     0.741860000000    -0.00665594 
C71      C      0.538730000000     0.304830000000     0.806390000000    -0.0438152  
C72      C      0.533570000000     0.269820000000     0.838430000000    -0.0438577  
C73      C      0.519180000000     0.189020000000     0.857680000000    -0.0272925  
C74      C      0.520660000000     0.227160000000     0.822860000000     0.0119544  
C75      C      0.473910000000     0.147350000000     0.793180000000    -0.0262082  
C76      C      0.513300000000     0.219930000000     0.774550000000    -0.00709536 
C77      C      0.842380000000     0.209740000000     0.030440000000     0.0120689  
C78      C      0.824640000000     0.130440000000     0.031990000000    -0.0438009  
C79      C      0.746220000000     0.099650000000     0.003890000000    -0.0279784  
C80      C      0.780760000000     0.137990000000     0.010030000000     0.0122779  
C81      C      0.703310000000     0.151140000000     0.946750000000    -0.0271384  
C82      C      0.727560000000     0.189710000000     0.970190000000     0.0141101  
C83      C      0.855740000000     0.165790000000     0.040750000000    -0.0435292  
C84      C      0.768350000000     0.181700000000     0.997110000000    -0.00742914 
C85      C      0.712730000000     0.233640000000     0.961970000000    -0.0440406  
C86      C      0.738040000000     0.269260000000     0.981180000000    -0.0432066  
C87      C      0.806970000000     0.299060000000     0.028760000000    -0.0244462  
C88      C      0.780690000000     0.261580000000     0.005380000000     0.0130044  
C89      C      0.877760000000     0.247190000000     0.037350000000    -0.0261687  
C90      C      0.797230000000     0.217840000000     0.011120000000    -0.00626815 
C91      C      0.217090000000     0.704890000000     0.971050000000     0.0133055  
C92      C      0.254700000000     0.765230000000     0.927910000000    -0.0437265  
C93      C      0.275190000000     0.838140000000     0.967310000000    -0.0265253  
C94      C      0.257310000000     0.790950000000     0.969080000000     0.0139678  
C95      C      0.272140000000     0.841180000000     0.056020000000    -0.0266634  
C96      C      0.244630000000     0.797920000000     0.053910000000     0.012997   
C97      C      0.236020000000     0.722170000000     0.929190000000    -0.0428928  
C98      C      0.239810000000     0.773620000000     0.011610000000    -0.00669067 
C99      C      0.223660000000     0.781570000000     0.095130000000    -0.0438565  
C100     C      0.198570000000     0.741590000000     0.094630000000    -0.043452   
C101     C      0.165250000000     0.674770000000     0.053950000000    -0.0276618  
C102     C      0.195030000000     0.716350000000     0.053240000000     0.0123039  
C103     C      0.199600000000     0.657360000000     0.972840000000    -0.0250074  
C104     C      0.217260000000     0.731350000000     0.011950000000    -0.00628708 
C105     C      0.254730000000     0.412540000000     0.812210000000     0.0128671  
C106     C      0.283760000000     0.377290000000     0.740830000000    -0.0438067  
C107     C      0.319000000000     0.420960000000     0.673950000000    -0.0283312  
C108     C      0.294490000000     0.418960000000     0.721250000000     0.0133619  
C109     C      0.299990000000     0.503500000000     0.674250000000    -0.0263668  
C110     C      0.290000000000     0.500090000000     0.726210000000     0.013785   
C111     C      0.263170000000     0.374170000000     0.785390000000    -0.0435565  
C112     C      0.283920000000     0.457900000000     0.746820000000    -0.00685878 
C113     C      0.283360000000     0.538500000000     0.753550000000    -0.0434453  
C114     C      0.271640000000     0.535000000000     0.801190000000    -0.043627   
C115     C      0.252280000000     0.488730000000     0.873130000000    -0.027308   
C116     C      0.263070000000     0.493160000000     0.821440000000     0.0142359  
C117     C      0.230960000000     0.408230000000     0.859780000000    -0.0273002  
C118     C      0.267270000000     0.454530000000     0.793730000000    -0.00705245 
C119     C      0.763080000000     0.543230000000     0.185910000000     0.0135372  
C120     C      0.743190000000     0.580290000000     0.259260000000    -0.0443032  
C121     C      0.715830000000     0.538230000000     0.330810000000    -0.0276036  
C122     C      0.734200000000     0.539150000000     0.280840000000     0.0131927  
C123     C      0.733000000000     0.455720000000     0.330070000000    -0.0265512  
C124     C      0.737320000000     0.457750000000     0.277320000000     0.0139104  
C125     C      0.758470000000     0.582250000000     0.212580000000    -0.0440431  
C126     C      0.741270000000     0.499510000000     0.255160000000    -0.00689568 
C127     C      0.740050000000     0.418700000000     0.250330000000    -0.0435794  
C128     C      0.745900000000     0.421100000000     0.201560000000    -0.043642   
C129     C      0.757770000000     0.465850000000     0.126900000000    -0.0272241  
C130     C      0.752380000000     0.462430000000     0.179500000000     0.0143627  
C131     C      0.780650000000     0.546060000000     0.135720000000    -0.0265787  
C132     C      0.752130000000     0.501720000000     0.206630000000    -0.00734055 
C133     C      0.727670000000     0.139360000000     0.490020000000     0.0127515  
C134     C      0.647370000000     0.163000000000     0.471350000000    -0.0437116  
C135     C      0.625980000000     0.243400000000     0.458650000000    -0.0264926  
C136     C      0.662430000000     0.207320000000     0.467500000000     0.0124495  
C137     C      0.695830000000     0.293970000000     0.441660000000    -0.0252964  
C138     C      0.727810000000     0.260710000000     0.465220000000     0.013642   
C139     C      0.679870000000     0.129240000000     0.481370000000    -0.0439015  
C140     C      0.710890000000     0.217490000000     0.473670000000    -0.00615775 
C141     C      0.775160000000     0.271270000000     0.475690000000    -0.0429019  
C142     C      0.805170000000     0.239260000000     0.495360000000    -0.0432895  
C143     C      0.820220000000     0.161410000000     0.525740000000    -0.0256329  
C144     C      0.789390000000     0.195340000000     0.501490000000     0.0146919  
C145     C      0.762370000000     0.101800000000     0.497710000000    -0.0273264  
C146     C      0.742800000000     0.183930000000     0.488560000000    -0.00687725 
C147     C      0.308580000000     0.706300000000     0.565880000000     0.0122056  
C148     C      0.237930000000     0.738890000000     0.600720000000    -0.0437531  
C149     C      0.183570000000     0.789670000000     0.555930000000    -0.0271596  
C150     C      0.225970000000     0.758980000000     0.557760000000     0.0129314  
C151     C      0.192370000000     0.787330000000     0.466790000000    -0.024957   
C152     C      0.241390000000     0.768370000000     0.473790000000     0.0133753  
C153     C      0.278260000000     0.712180000000     0.604500000000    -0.0434876  
C154     C      0.254810000000     0.751710000000     0.518100000000    -0.00636532 
C155     C      0.272400000000     0.763810000000     0.435470000000    -0.0433276  
C156     C      0.316740000000     0.743820000000     0.441370000000    -0.0437503  
C157     C      0.378420000000     0.706440000000     0.492290000000    -0.027039   
C158     C      0.329550000000     0.725290000000     0.484910000000     0.0139929  
C159     C      0.351110000000     0.675820000000     0.570850000000    -0.0269216  
C160     C      0.297860000000     0.727660000000     0.522970000000    -0.00692585 
C161     C      0.285570000000     0.996340000000     0.644950000000     0.0130356  
C162     C      0.363960000000     0.970170000000     0.667870000000    -0.0437811  
C163     C      0.385730000000     0.956920000000     0.753050000000    -0.0277913  
C164     C      0.349550000000     0.967220000000     0.715060000000     0.0125093  
C165     C      0.313570000000     0.939660000000     0.804150000000    -0.0259658  
C166     C      0.285020000000     0.969170000000     0.772170000000     0.0135537  
C167     C      0.331750000000     0.983030000000     0.632910000000    -0.0437969  
C168     C      0.302350000000     0.977660000000     0.726800000000    -0.00687069 
C169     C      0.239990000000     0.985010000000     0.785160000000    -0.0436816  
C170     C      0.212840000000     0.009610000000     0.753160000000    -0.0440125  
C171     C      0.201330000000     0.042700000000     0.671680000000    -0.0264616  
C172     C      0.228540000000     0.015100000000     0.706620000000     0.013811   
C173     C      0.250100000000     0.007530000000     0.606590000000    -0.0274291  
C174     C      0.272070000000     0.996550000000     0.692670000000    -0.00690265 
C175     C      0.779110000000     0.928160000000     0.291670000000     0.0131941  
C176     C      0.772100000000     0.960080000000     0.213330000000    -0.0438688  
C177     C      0.699200000000     0.004780000000     0.190400000000    -0.0264171  
C178     C      0.726180000000     0.975270000000     0.223890000000     0.0137636  
C179     C      0.624680000000     0.988070000000     0.238170000000    -0.0280466  
C180     C      0.658710000000     0.976280000000     0.277600000000     0.0127606  
C181     C      0.797600000000     0.935110000000     0.246360000000    -0.0438222  
C182     C      0.706470000000     0.966030000000     0.268190000000    -0.00700477 
C183     C      0.641610000000     0.972040000000     0.323800000000    -0.0439805  
C184     C      0.671640000000     0.957920000000     0.360080000000    -0.043781   
C185     C      0.751310000000     0.932230000000     0.390580000000    -0.0282015  
C186     C      0.718440000000     0.944850000000     0.350370000000     0.0121832  
C187     C      0.804500000000     0.899650000000     0.327210000000    -0.0272468  
C188     C      0.734820000000     0.946290000000     0.303570000000    -0.00707732 
C189     C      0.055410000000     0.771020000000     0.261610000000     0.0124032  
C190     C      0.095430000000     0.710650000000     0.220900000000    -0.0440676  
C191     C      0.052880000000     0.642150000000     0.193240000000    -0.027728   
C192     C      0.052820000000     0.686720000000     0.217720000000     0.0131215  
C193     C      0.968050000000     0.632330000000     0.220450000000    -0.0266123  
C194     C      0.968460000000     0.680070000000     0.236910000000     0.0138518  
C195     C      0.096790000000     0.752100000000     0.242960000000    -0.0436236  
C196     C      0.011100000000     0.704600000000     0.237450000000    -0.00678899 
C197     C      0.926790000000     0.699440000000     0.254480000000    -0.0435695  
C198     C      0.927060000000     0.743030000000     0.271400000000    -0.0435664  
C199     C      0.969150000000     0.815090000000     0.289400000000    -0.0265192  
C200     C      0.969520000000     0.767330000000     0.273480000000     0.0135775  
C201     C      0.058570000000     0.815460000000     0.286600000000    -0.0259242  
C202     C      0.011990000000     0.747870000000     0.257540000000    -0.00635457 
C203     C      0.037210000000     0.177870000000     0.729170000000     0.0131188  
C204     C      0.081370000000     0.244230000000     0.751100000000    -0.0436432  
C205     C      0.042130000000     0.309170000000     0.791750000000    -0.0264116  
C206     C      0.040840000000     0.262420000000     0.772320000000     0.0139848  
C207     C      0.959870000000     0.295860000000     0.825620000000    -0.0286388  
C208     C      0.957840000000     0.254460000000     0.795510000000     0.013714   
C209     C      0.079900000000     0.201890000000     0.730910000000    -0.0433103  
C210     C      0.998130000000     0.238100000000     0.771970000000    -0.00709001 
C211     C      0.914780000000     0.231260000000     0.792040000000    -0.0437791  
C212     C      0.911700000000     0.191990000000     0.765990000000    -0.0429779  
C213     C      0.946710000000     0.131930000000     0.715140000000    -0.0268366  
C214     C      0.951880000000     0.174280000000     0.743720000000     0.0124226  
C215     C      0.036560000000     0.131260000000     0.709800000000    -0.0262323  
C216     C      0.995730000000     0.196560000000     0.748120000000    -0.00621205 
H1       H      0.888630000000     0.938630000000     0.569910000000    -0.0593947  
H2       H      0.014060000000     0.933730000000     0.630920000000    -0.0632071  
H3       H      0.112650000000     0.996300000000     0.437320000000    -0.0643708  
H4       H      0.974130000000     0.850000000000     0.527000000000    -0.0610218  
H5       H      0.985700000000     0.009590000000     0.380080000000    -0.0600746  
H6       H      0.018820000000     0.092170000000     0.476500000000    -0.0609669  
H7       H      0.089550000000     0.372880000000     0.023340000000    -0.0631702  
H8       H      0.990720000000     0.415540000000     0.120240000000    -0.0610764  
H9       H      0.931360000000     0.573000000000     0.982620000000    -0.0619287  
H10      H      0.102180000000     0.481130000000     0.095980000000    -0.058789   
H11      H      0.024160000000     0.536430000000     0.890420000000    -0.0589822  
H12      H      0.911200000000     0.459840000000     0.914060000000    -0.0633496  
H13      H      0.424700000000     0.383150000000     0.500510000000    -0.0641804  
H14      H      0.505690000000     0.416060000000     0.383790000000    -0.0645367  
H15      H      0.597780000000     0.574590000000     0.500840000000    -0.0609582  
H16      H      0.402850000000     0.488670000000     0.427860000000    -0.0580964  
H17      H      0.523130000000     0.548150000000     0.610020000000    -0.0606587  
H18      H      0.626530000000     0.463880000000     0.566650000000    -0.0636642  
H19      H      0.453670000000     0.004310000000     0.118020000000    -0.063137   
H20      H      0.383340000000     0.029970000000     0.992460000000    -0.0640274  
H21      H      0.560310000000     0.949690000000     0.881210000000    -0.0598226  
H22      H      0.493090000000     0.095300000000     0.032660000000    -0.0576289  
H23      H      0.628350000000     0.926190000000     0.993640000000    -0.060518   
H24      H      0.509920000000     0.855830000000     0.961800000000    -0.0626997  
H25      H      0.567930000000     0.794480000000     0.156750000000     0.0443156  
H26      H      0.419150000000     0.622860000000     0.298830000000     0.0404465  
H27      H      0.435110000000     0.831010000000     0.205980000000     0.0387746  
H28      H      0.557950000000     0.606030000000     0.276690000000     0.0485109  
H29      H      0.378040000000     0.707410000000     0.296340000000     0.0363685  
H30      H      0.379000000000     0.772820000000     0.244770000000     0.0361751  
H31      H      0.423800000000     0.792630000000     0.158490000000     0.0485769  
H32      H      0.436840000000     0.658570000000     0.345910000000     0.0483453  
H33      H      0.605360000000     0.726980000000     0.184930000000     0.0374411  
H34      H      0.552720000000     0.815260000000     0.214380000000     0.0442868  
H35      H      0.597850000000     0.653260000000     0.221030000000     0.0382462  
H36      H      0.504230000000     0.596890000000     0.243820000000     0.0410516  
H37      H      0.571180000000     0.353470000000     0.728770000000     0.0398272  
H38      H      0.472020000000     0.113560000000     0.777120000000     0.0465048  
H39      H      0.533140000000     0.269430000000     0.623950000000     0.0448225  
H40      H      0.495770000000     0.198480000000     0.887570000000     0.0410733  
H41      H      0.479850000000     0.139040000000     0.697040000000     0.0378658  
H42      H      0.510380000000     0.193970000000     0.640730000000     0.0371969  
H43      H      0.584950000000     0.274400000000     0.660710000000     0.0438181  
H44      H      0.437080000000     0.158170000000     0.801270000000     0.0427398  
H45      H      0.546870000000     0.337860000000     0.819400000000     0.0372623  
H46      H      0.507760000000     0.359830000000     0.733630000000     0.0480477  
H47      H      0.539270000000     0.276080000000     0.875560000000     0.0370454  
H48      H      0.555750000000     0.184160000000     0.871510000000     0.048374   
H49      H      0.723030000000     0.142030000000     0.914270000000     0.0422695  
H50      H      0.909680000000     0.239440000000     0.015830000000     0.0473053  
H51      H      0.737480000000     0.086680000000     0.039520000000     0.048993   
H52      H      0.796820000000     0.300640000000     0.066530000000     0.0419676  
H53      H      0.890170000000     0.158920000000     0.056070000000     0.0374691  
H54      H      0.835010000000     0.097010000000     0.041940000000     0.0374662  
H55      H      0.763930000000     0.072640000000     0.983730000000     0.0407676  
H56      H      0.889420000000     0.247520000000     0.074730000000     0.0391181  
H57      H      0.681230000000     0.240330000000     0.941300000000     0.03757    
H58      H      0.666840000000     0.161480000000     0.936350000000     0.0473081  
H59      H      0.724870000000     0.302830000000     0.976360000000     0.0367674  
H60      H      0.796560000000     0.331060000000     0.011870000000     0.0426493  
H61      H      0.296600000000     0.839400000000     0.086690000000     0.0475981  
H62      H      0.229800000000     0.635420000000     0.982620000000     0.0411592  
H63      H      0.244710000000     0.860950000000     0.961420000000     0.0410117  
H64      H      0.129320000000     0.684480000000     0.066600000000     0.0497169  
H65      H      0.236050000000     0.702380000000     0.897320000000     0.0373245  
H66      H      0.267740000000     0.778290000000     0.894810000000     0.0374079  
H67      H      0.299580000000     0.841610000000     0.936750000000     0.0469541  
H68      H      0.187060000000     0.646980000000     0.937320000000     0.0450563  
H69      H      0.226400000000     0.800070000000     0.127750000000     0.0361747  
H70      H      0.246940000000     0.869040000000     0.062160000000     0.0390537  
H71      H      0.181710000000     0.730240000000     0.126750000000     0.0357913  
H72      H      0.180810000000     0.651230000000     0.079940000000     0.038216   
H73      H      0.316480000000     0.536420000000     0.666630000000     0.0458756  
H74      H      0.255590000000     0.390830000000     0.884180000000     0.0395872  
H75      H      0.295110000000     0.406460000000     0.646860000000     0.0400398  
H76      H      0.238250000000     0.520890000000     0.886690000000     0.0478351  
H77      H      0.254200000000     0.341640000000     0.799250000000     0.0374282  
H78      H      0.291190000000     0.347060000000     0.721380000000     0.0379586  
H79      H      0.351330000000     0.399800000000     0.676010000000     0.0505237  
H80      H      0.199410000000     0.386280000000     0.855970000000     0.0489273  
H81      H      0.287900000000     0.571220000000     0.738160000000     0.0372711  
H82      H      0.266070000000     0.501330000000     0.654430000000     0.0417802  
H83      H      0.268440000000     0.565030000000     0.822060000000     0.0376994  
H84      H      0.285630000000     0.481250000000     0.892460000000     0.040929   
H85      H      0.768800000000     0.458900000000     0.346130000000     0.0407983  
H86      H      0.811420000000     0.569180000000     0.133850000000     0.0485396  
H87      H      0.684910000000     0.561150000000     0.333180000000     0.0493169  
H88      H      0.722850000000     0.474390000000     0.111090000000     0.039974   
H89      H      0.766200000000     0.614350000000     0.196990000000     0.0369688  
H90      H      0.738570000000     0.610980000000     0.278760000000     0.0369704  
H91      H      0.743890000000     0.551110000000     0.354690000000     0.0390828  
H92      H      0.752310000000     0.561280000000     0.113800000000     0.0384494  
H93      H      0.736950000000     0.386370000000     0.266930000000     0.0380806  
H94      H      0.718010000000     0.422920000000     0.340650000000     0.0462155  
H95      H      0.746310000000     0.390640000000     0.181150000000     0.0383324  
H96      H      0.769040000000     0.433280000000     0.111970000000     0.0471749  
H97      H      0.696360000000     0.288310000000     0.403000000000     0.0416055  
H98      H      0.760620000000     0.079620000000     0.466380000000     0.0490821  
H99      H      0.597960000000     0.240250000000     0.486020000000     0.0471635  
H100     H      0.811890000000     0.161140000000     0.563980000000     0.0429644  
H101     H      0.667660000000     0.095060000000     0.482640000000     0.0368278  
H102     H      0.610380000000     0.154490000000     0.466140000000     0.0366074  
H103     H      0.609290000000     0.237710000000     0.423730000000     0.0390565  
H104     H      0.750300000000     0.081720000000     0.528330000000     0.037828   
H105     H      0.788670000000     0.304510000000     0.469400000000     0.0374751  
H106     H      0.709650000000     0.328070000000     0.448450000000     0.0447182  
H107     H      0.840940000000     0.248630000000     0.505190000000     0.0388638  
H108     H      0.858200000000     0.170810000000     0.521290000000     0.046486   
H109     H      0.167250000000     0.759820000000     0.458870000000     0.0437371  
H110     H      0.338440000000     0.643600000000     0.585500000000     0.0481345  
H111     H      0.188720000000     0.815510000000     0.583510000000     0.0482292  
H112     H      0.402010000000     0.732940000000     0.506350000000     0.0411815  
H113     H      0.286120000000     0.696300000000     0.637840000000     0.0368828  
H114     H      0.215830000000     0.743880000000     0.631470000000     0.0373153  
H115     H      0.151210000000     0.770260000000     0.564910000000     0.0402387  
H116     H      0.375820000000     0.690240000000     0.597260000000     0.0403689  
H117     H      0.262550000000     0.776290000000     0.401060000000     0.0365361  
H118     H      0.192920000000     0.810460000000     0.436160000000     0.0432603  
H119     H      0.340860000000     0.742310000000     0.411720000000     0.0369405  
H120     H      0.392820000000     0.695750000000     0.457620000000     0.0479446  
H121     H      0.308540000000     0.904320000000     0.793680000000     0.0423221  
H122     H      0.247120000000     0.978320000000     0.582710000000     0.0490973  
H123     H      0.412050000000     0.984520000000     0.753690000000     0.0485729  
H124     H      0.217870000000     0.076180000000     0.668860000000     0.0409706  
H125     H      0.343030000000     0.983220000000     0.596470000000     0.0376268  
H126     H      0.400080000000     0.962030000000     0.658060000000     0.0373866  
H127     H      0.404700000000     0.925700000000     0.743730000000     0.0393414  
H128     H      0.264320000000     0.035370000000     0.585030000000     0.0384613  
H129     H      0.226230000000     0.978920000000     0.820160000000     0.0375307  
H130     H      0.300840000000     0.943600000000     0.841050000000     0.0433114  
H131     H      0.179150000000     0.023360000000     0.764340000000     0.03763    
H132     H      0.164130000000     0.047160000000     0.684070000000     0.0446726  
H133     H      0.606350000000     0.019720000000     0.247140000000     0.0394989  
H134     H      0.842330000000     0.895570000000     0.316770000000     0.0455115  
H135     H      0.713490000000     0.000480000000     0.154120000000     0.0436376  
H136     H      0.735720000000     0.903620000000     0.409970000000     0.0396813  
H137     H      0.832030000000     0.921870000000     0.236820000000     0.0374507  
H138     H      0.787850000000     0.966900000000     0.179320000000     0.0375179  
H139     H      0.704050000000     0.040150000000     0.200830000000     0.0432303  
H140     H      0.788000000000     0.866050000000     0.327530000000     0.0412707  
H141     H      0.605020000000     0.980070000000     0.331820000000     0.0372846  
H142     H      0.597490000000     0.961290000000     0.236080000000     0.0491127  
H143     H      0.658160000000     0.956600000000     0.395760000000     0.0369146  
H144     H      0.753150000000     0.961020000000     0.415130000000     0.0490078  
H145     H      0.932100000000     0.624280000000     0.206630000000     0.0473777  
H146     H      0.065620000000     0.841870000000     0.260110000000     0.0385573  
H147     H      0.071950000000     0.617690000000     0.215690000000     0.0401859  
H148     H      0.938380000000     0.820260000000     0.313290000000     0.0472979  
H149     H      0.130330000000     0.769590000000     0.245440000000     0.0357513  
H150     H      0.127880000000     0.697060000000     0.206340000000     0.0354367  
H151     H      0.073210000000     0.645900000000     0.159900000000     0.0493438  
H152     H      0.089830000000     0.814610000000     0.310490000000     0.0470581  
H153     H      0.893780000000     0.680950000000     0.254520000000     0.0374155  
H154     H      0.975380000000     0.610080000000     0.250840000000     0.0411311  
H155     H      0.894070000000     0.757720000000     0.283320000000     0.0370619  
H156     H      0.964030000000     0.836990000000     0.258280000000     0.0403132  
H157     H      0.944820000000     0.287120000000     0.860630000000     0.0512586  
H158     H      0.043470000000     0.107620000000     0.739090000000     0.0412865  
H159     H      0.032800000000     0.333030000000     0.763320000000     0.0419623  
H160     H      0.916320000000     0.136590000000     0.690630000000     0.0480551  
H161     H      0.112150000000     0.187950000000     0.716310000000     0.0370789  
H162     H      0.114430000000     0.262620000000     0.750690000000     0.0375524  
H163     H      0.078860000000     0.316670000000     0.803840000000     0.0462706  
H164     H      0.066200000000     0.127620000000     0.684230000000     0.0465536  
H165     H      0.883340000000     0.243680000000     0.809620000000     0.0387772  
H166     H      0.936810000000     0.321740000000     0.809530000000     0.0412296  
H167     H      0.877820000000     0.175120000000     0.763430000000     0.0376025  
H168     H      0.938030000000     0.103990000000     0.739310000000     0.0400129  
Mg1      Mg     0.094030000000     0.928650000000     0.562890000000     0.790953   
Mg2      Mg     0.058910000000     0.048760000000     0.565840000000     0.794108   
Mg3      Mg     0.941850000000     0.890630000000     0.437840000000     0.788155   
Mg4      Mg     0.927320000000     0.035290000000     0.572550000000     0.780044   
Mg5      Mg     0.073980000000     0.905700000000     0.433680000000     0.783252   
Mg6      Mg     0.900470000000     0.007510000000     0.447320000000     0.784964   
Mg7      Mg     0.952500000000     0.506000000000     0.107060000000     0.782259   
Mg8      Mg     0.891620000000     0.439340000000     0.013800000000     0.793029   
Mg9      Mg     0.123220000000     0.507870000000     0.991840000000     0.781036   
Mg10     Mg     0.992330000000     0.363290000000     0.981500000000     0.79152    
Mg11     Mg     0.025630000000     0.580450000000     0.033580000000     0.796695   
Mg12     Mg     0.060140000000     0.439460000000     0.901130000000     0.781742   
Mg13     Mg     0.548650000000     0.504330000000     0.387360000000     0.792172   
Mg14     Mg     0.623590000000     0.437670000000     0.468610000000     0.793198   
Mg15     Mg     0.404660000000     0.520510000000     0.531950000000     0.782618   
Mg16     Mg     0.526530000000     0.368380000000     0.522260000000     0.793666   
Mg17     Mg     0.495410000000     0.587140000000     0.468320000000     0.790216   
Mg18     Mg     0.483350000000     0.453430000000     0.610640000000     0.78721    
Mg19     Mg     0.445250000000     0.027850000000     0.907780000000     0.787009   
Mg20     Mg     0.426180000000     0.909070000000     0.937670000000     0.791856   
Mg21     Mg     0.586190000000     0.041050000000     0.056290000000     0.78081    
Mg22     Mg     0.430570000000     0.917410000000     0.069390000000     0.786238   
Mg23     Mg     0.573360000000     0.042530000000     0.927050000000     0.788764   
Mg24     Mg     0.564100000000     0.922440000000     0.081830000000     0.789897   
N1       N      0.493140000000     0.622310000000     0.312530000000    -0.161026   
N2       N      0.495580000000     0.812890000000     0.166040000000    -0.161338   
N3       N      0.501680000000     0.146940000000     0.837040000000    -0.161193   
N4       N      0.531820000000     0.322690000000     0.674260000000    -0.160909   
N5       N      0.858370000000     0.291360000000     0.024850000000    -0.161221   
N6       N      0.702330000000     0.112720000000     0.978960000000    -0.160462   
N7       N      0.161600000000     0.652160000000     0.007830000000    -0.160808   
N8       N      0.298580000000     0.849740000000     0.012140000000    -0.160062   
N9       N      0.218420000000     0.451980000000     0.879890000000    -0.159714   
N10      N      0.331400000000     0.466850000000     0.659900000000    -0.159664   
N11      N      0.791940000000     0.501570000000     0.116880000000    -0.160709   
N12      N      0.702910000000     0.492800000000     0.345790000000    -0.160838   
N13      N      0.811520000000     0.117010000000     0.505880000000    -0.160418   
N14      N      0.647050000000     0.288400000000     0.459340000000    -0.160974   
N15      N      0.376640000000     0.669180000000     0.526040000000    -0.160095   
N16      N      0.176680000000     0.810820000000     0.509450000000    -0.159947   
N17      N      0.203320000000     0.020310000000     0.625740000000    -0.160564   
N18      N      0.364000000000     0.951530000000     0.800010000000    -0.16109    
N19      N      0.799290000000     0.919720000000     0.374200000000    -0.160612   
N20      N      0.648510000000     0.993370000000     0.192180000000    -0.159861   
N21      N      0.014570000000     0.826250000000     0.312310000000    -0.160216   
N22      N      0.004450000000     0.625440000000     0.184080000000    -0.160288   
N23      N      0.990090000000     0.120620000000     0.688610000000    -0.159706   
N24      N      0.008330000000     0.314070000000     0.830870000000    -0.158914   
O1       O      0.040970000000     0.978990000000     0.585400000000    -0.414469   
O2       O      0.909900000000     0.982160000000     0.519710000000    -0.410486   
O3       O      0.967770000000     0.982540000000     0.614420000000    -0.339161   
O4       O      0.095210000000     0.028170000000     0.497340000000    -0.341923   
O5       O      0.055040000000     0.858060000000     0.373770000000    -0.338106   
O6       O      0.026350000000     0.078750000000     0.632200000000    -0.342319   
O7       O      0.033140000000     0.879900000000     0.551530000000    -0.338603   
O8       O      0.990120000000     0.053990000000     0.527890000000    -0.409221   
O9       O      0.839510000000     0.957090000000     0.431840000000    -0.33147    
O10      O      0.976410000000     0.864100000000     0.370660000000    -0.34114    
O11      O      0.904260000000     0.909100000000     0.507750000000    -0.335397   
O12      O      0.880830000000     0.088650000000     0.534880000000    -0.333307   
O13      O      0.128390000000     0.039960000000     0.605030000000    -0.340967   
O14      O      0.123440000000     0.853260000000     0.468250000000    -0.336056   
O15      O      0.009840000000     0.883900000000     0.476690000000    -0.407964   
O16      O      0.957920000000     0.961640000000     0.421880000000    -0.411102   
O17      O      0.032080000000     0.960300000000     0.395010000000    -0.337833   
O18      O      0.844490000000     0.054560000000     0.475120000000    -0.340205   
O19      O      0.091010000000     0.954670000000     0.489000000000    -0.414047   
O20      O      0.958210000000     0.061380000000     0.456620000000    -0.334881   
O21      O      0.143280000000     0.872730000000     0.541530000000    -0.340231   
O22      O      0.947810000000     0.086030000000     0.629800000000    -0.334911   
O23      O      0.157970000000     0.975220000000     0.579580000000    -0.332935   
O24      O      0.873970000000     0.899750000000     0.396300000000    -0.341891   
O25      O      0.947690000000     0.441010000000     0.069980000000    -0.411158   
O26      O      0.055930000000     0.405420000000     0.970630000000    -0.41387    
O27      O      0.993650000000     0.381440000000     0.059260000000    -0.339836   
O28      O      0.901350000000     0.513070000000     0.994870000000    -0.340116   
O29      O      0.092340000000     0.619950000000     0.029340000000    -0.347269   
O30      O      0.873910000000     0.365760000000     0.025170000000    -0.342722   
O31      O      0.033760000000     0.494250000000     0.112860000000    -0.333647   
O32      O      0.946190000000     0.421710000000     0.961420000000    -0.411684   
O33      O      0.142380000000     0.431890000000     0.898260000000    -0.332823   
O34      O      0.138800000000     0.583900000000     0.978980000000    -0.331846   
O35      O      0.117330000000     0.433500000000     0.009690000000    -0.337668   
O36      O      0.992200000000     0.340490000000     0.904300000000    -0.337154   
O37      O      0.837140000000     0.458850000000     0.068430000000    -0.341837   
O38      O      0.024900000000     0.598370000000     0.112030000000    -0.338639   
O39      O      0.069100000000     0.520640000000     0.048380000000    -0.409942   
O40      O      0.064900000000     0.505140000000     0.938950000000    -0.407326   
O41      O      0.025680000000     0.568100000000     0.953260000000    -0.335485   
O42      O      0.050280000000     0.372280000000     0.862700000000    -0.333558   
O43      O      0.960000000000     0.540540000000     0.038220000000    -0.418335   
O44      O      0.979780000000     0.449520000000     0.896800000000    -0.338371   
O45      O      0.960620000000     0.571530000000     0.147160000000    -0.339297   
O46      O      0.928730000000     0.319010000000     0.997870000000    -0.339653   
O47      O      0.870730000000     0.515960000000     0.106120000000    -0.333569   
O48      O      0.174820000000     0.491140000000     0.933250000000    -0.338897   
O49      O      0.557580000000     0.441030000000     0.425270000000    -0.41948    
O50      O      0.470360000000     0.415690000000     0.543390000000    -0.41118    
O51      O      0.512300000000     0.383700000000     0.445450000000    -0.344442   
O52      O      0.621240000000     0.512680000000     0.485470000000    -0.338848   
O53      O      0.433890000000     0.631870000000     0.485590000000    -0.343719   
O54      O      0.634230000000     0.363160000000     0.457620000000    -0.343418   
O55      O      0.467400000000     0.496740000000     0.397810000000    -0.333866   
O56      O      0.580550000000     0.424120000000     0.531720000000    -0.410106   
O57      O      0.403500000000     0.448110000000     0.629530000000    -0.334253   
O58      O      0.396510000000     0.597060000000     0.543990000000    -0.333388   
O59      O      0.403410000000     0.445530000000     0.516580000000    -0.338156   
O60      O      0.534690000000     0.345580000000     0.598080000000    -0.344462   
O61      O      0.666630000000     0.452150000000     0.402970000000    -0.341743   
O62      O      0.482130000000     0.602360000000     0.389480000000    -0.336528   
O63      O      0.446080000000     0.529430000000     0.465140000000    -0.408513   
O64      O      0.472790000000     0.517000000000     0.571250000000    -0.411333   
O65      O      0.510720000000     0.577950000000     0.547420000000    -0.336608   
O66      O      0.500180000000     0.389450000000     0.651350000000    -0.337113   
O67      O      0.556300000000     0.542220000000     0.453780000000    -0.416236   
O68      O      0.562580000000     0.460050000000     0.597990000000    -0.339982   
O69      O      0.536660000000     0.567390000000     0.346790000000    -0.346504   
O70      O      0.583810000000     0.319990000000     0.497210000000    -0.338324   
O71      O      0.629200000000     0.510910000000     0.372480000000    -0.334654   
O72      O      0.365280000000     0.507470000000     0.600910000000    -0.336864   
O73      O      0.418100000000     0.979610000000     0.960140000000    -0.418123   
O74      O      0.494430000000     0.958500000000     0.084850000000    -0.408961   
O75      O      0.395840000000     0.977580000000     0.034990000000    -0.343046   
O76      O      0.496160000000     0.924120000000     0.898290000000    -0.337717   
O77      O      0.632770000000     0.088530000000     0.947580000000    -0.343845   
O78      O      0.358350000000     0.885280000000     0.973420000000    -0.342172   
O79      O      0.465260000000     0.073530000000     0.971020000000    -0.332398   
O80      O      0.467230000000     0.894220000000     0.002140000000    -0.408723   
O81      O      0.590540000000     0.962800000000     0.146760000000    -0.332391   
O82      O      0.655660000000     0.061600000000     0.016850000000    -0.33209    
O83      O      0.518280000000     0.027780000000     0.099320000000    -0.336421   
O84      O      0.459970000000     0.859640000000     0.113560000000    -0.340686   
O85      O      0.383060000000     0.926400000000     0.872930000000    -0.342046   
O86      O      0.536050000000     0.103960000000     0.893930000000    -0.334297   
O87      O      0.538590000000     0.057000000000     0.995060000000    -0.408673   
O88      O      0.590520000000     0.972140000000     0.029950000000    -0.414905   
O89      O      0.614670000000     0.982040000000     0.956130000000    -0.335578   
O90      O      0.536790000000     0.868530000000     0.130140000000    -0.342548   
O91      O      0.515230000000     0.995310000000     0.908730000000    -0.416083   
O92      O      0.542350000000     0.878660000000     0.020180000000    -0.339226   
O93      O      0.472450000000     0.078810000000     0.856200000000    -0.344579   
O94      O      0.363530000000     0.877450000000     0.051180000000    -0.335684   
O95      O      0.421590000000     0.984960000000     0.843590000000    -0.331708   
O96      O      0.632150000000     0.020230000000     0.118920000000    -0.337006   


