data_structure

_audit_creation_method RASPA-1.0
_audit_creation_date 2023-5-19
_audit_author_name 'Poobodin Mano'

_cell_length_a    26.6267
_cell_length_b    26.4841
_cell_length_c    32.8884
_cell_angle_alpha 90
_cell_angle_beta  90
_cell_angle_gamma 90
_cell_volume      23192.4

_symmetry_cell_setting          triclinic
_symmetry_space_group_name_Hall 'P 1'
_symmetry_space_group_name_H-M  'P 1'
_symmetry_Int_Tables_number     1

_symmetry_equiv_pos_as_xyz 'x,y,z'

loop_
_atom_site_label
_atom_site_type_symbol
_atom_site_fract_x
_atom_site_fract_y
_atom_site_fract_z
_atom_site_charge
C1       C      0.510120000000     0.510680000000     0.038580000000     0.397233   
C2       C      0.172810000000     0.173330000000     0.024530000000     0.397776   
C3       C      0.177100000000     0.489250000000     0.017310000000     0.395863   
C4       C      0.490780000000     0.173840000000     0.023260000000     0.39281    
C5       C      0.494560000000     0.171220000000     0.415040000000     0.392582   
C6       C      0.161130000000     0.502010000000     0.406830000000     0.386713   
C7       C      0.496230000000     0.496850000000     0.414540000000     0.38686    
C8       C      0.173580000000     0.176840000000     0.420050000000     0.394645   
C9       C      0.421480000000     0.422670000000     0.172050000000     0.400768   
C10      C      0.236850000000     0.239780000000     0.166320000000     0.394675   
C11      C      0.415050000000     0.240830000000     0.164130000000     0.396423   
C12      C      0.244840000000     0.415980000000     0.158320000000     0.393581   
C13      C      0.234550000000     0.423120000000     0.268100000000     0.393241   
C14      C      0.413570000000     0.243930000000     0.276220000000     0.389331   
C15      C      0.413390000000     0.416330000000     0.277060000000     0.391062   
C16      C      0.244930000000     0.249100000000     0.280170000000     0.389052   
C17      C      0.229960000000     0.166980000000     0.118760000000    -0.0134904  
C18      C      0.167930000000     0.237950000000     0.115850000000    -0.0249086  
C19      C      0.243070000000     0.175980000000     0.073740000000    -0.0141148  
C20      C      0.184590000000     0.248900000000     0.072110000000     0.0285169  
C21      C      0.175140000000     0.245550000000     0.330510000000    -0.014589   
C22      C      0.245130000000     0.181350000000     0.332200000000    -0.0261563  
C23      C      0.181100000000     0.252820000000     0.376640000000    -0.0145062  
C24      C      0.252410000000     0.193080000000     0.377380000000     0.028399   
C25      C      0.176680000000     0.420560000000     0.106590000000    -0.0131923  
C26      C      0.246220000000     0.485020000000     0.107110000000    -0.025063   
C27      C      0.184820000000     0.413300000000     0.060680000000    -0.0140302  
C28      C      0.254980000000     0.474340000000     0.061770000000     0.0269289  
C29      C      0.482740000000     0.245310000000     0.072060000000    -0.0138714  
C30      C      0.416690000000     0.178220000000     0.068880000000    -0.024993   
C31      C      0.488480000000     0.235850000000     0.117970000000    -0.0141507  
C32      C      0.425400000000     0.166880000000     0.114100000000     0.0273394  
C33      C      0.485690000000     0.421640000000     0.369680000000    -0.0143513  
C34      C      0.423210000000     0.492470000000     0.367830000000    -0.0257278  
C35      C      0.487130000000     0.421610000000     0.322910000000    -0.0150628  
C36      C      0.428720000000     0.494880000000     0.321500000000     0.0267858  
C37      C      0.421700000000     0.171850000000     0.324490000000    -0.0139199  
C38      C      0.487050000000     0.240110000000     0.322410000000    -0.0257139  
C39      C      0.419260000000     0.177320000000     0.370970000000    -0.0147979  
C40      C      0.480650000000     0.247850000000     0.368250000000     0.027712   
C41      C      0.230000000000     0.497250000000     0.355840000000    -0.0144923  
C42      C      0.160050000000     0.432860000000     0.355910000000    -0.0260236  
C43      C      0.225430000000     0.500820000000     0.309380000000    -0.0145831  
C44      C      0.154790000000     0.440300000000     0.309900000000     0.027649   
C45      C      0.525010000000     0.461120000000     0.100650000000    -0.0130166  
C46      C      0.445310000000     0.513920000000     0.091490000000    -0.0230851  
C47      C      0.493100000000     0.425200000000     0.125930000000    -0.00935397 
C48      C      0.438090000000     0.503510000000     0.137010000000     0.0295149  
C49      C      0.510120000000     0.510680000000     0.538580000000     0.397563   
C50      C      0.172810000000     0.173330000000     0.524530000000     0.398148   
C51      C      0.177100000000     0.489250000000     0.517310000000     0.396266   
C52      C      0.490780000000     0.173840000000     0.523260000000     0.393225   
C53      C      0.494560000000     0.171220000000     0.915040000000     0.392142   
C54      C      0.161130000000     0.502010000000     0.906830000000     0.386288   
C55      C      0.496230000000     0.496850000000     0.914540000000     0.386466   
C56      C      0.173580000000     0.176840000000     0.920050000000     0.394181   
C57      C      0.421480000000     0.422670000000     0.672050000000     0.400754   
C58      C      0.236850000000     0.239780000000     0.666320000000     0.394678   
C59      C      0.415050000000     0.240830000000     0.664130000000     0.396462   
C60      C      0.244840000000     0.415980000000     0.658320000000     0.393574   
C61      C      0.234550000000     0.423120000000     0.768100000000     0.393234   
C62      C      0.413570000000     0.243930000000     0.776230000000     0.389268   
C63      C      0.413390000000     0.416330000000     0.777060000000     0.391049   
C64      C      0.244930000000     0.249100000000     0.780170000000     0.389048   
C65      C      0.229960000000     0.166980000000     0.618760000000    -0.0134843  
C66      C      0.167930000000     0.237950000000     0.615850000000    -0.0249683  
C67      C      0.243070000000     0.175980000000     0.573740000000    -0.0140939  
C68      C      0.184590000000     0.248900000000     0.572110000000     0.0287997  
C69      C      0.175140000000     0.245550000000     0.830510000000    -0.0146018  
C70      C      0.245130000000     0.181350000000     0.832200000000    -0.0262292  
C71      C      0.181100000000     0.252820000000     0.876640000000    -0.0144681  
C72      C      0.252410000000     0.193080000000     0.877380000000     0.0286819  
C73      C      0.176680000000     0.420560000000     0.606590000000    -0.013211   
C74      C      0.246220000000     0.485020000000     0.607110000000    -0.0251491  
C75      C      0.184820000000     0.413300000000     0.560680000000    -0.0139658  
C76      C      0.254980000000     0.474340000000     0.561770000000     0.0272653  
C77      C      0.482740000000     0.245310000000     0.572060000000    -0.0138355  
C78      C      0.416690000000     0.178220000000     0.568880000000    -0.0249378  
C79      C      0.488480000000     0.235850000000     0.617970000000    -0.0141418  
C80      C      0.425400000000     0.166880000000     0.614100000000     0.0273328  
C81      C      0.485690000000     0.421640000000     0.869680000000    -0.0143106  
C82      C      0.423210000000     0.492470000000     0.867830000000    -0.0256898  
C83      C      0.487130000000     0.421610000000     0.822910000000    -0.0150787  
C84      C      0.428720000000     0.494880000000     0.821500000000     0.0267697  
C85      C      0.421700000000     0.171850000000     0.824490000000    -0.0139167  
C86      C      0.487050000000     0.240110000000     0.822410000000    -0.025753   
C87      C      0.419260000000     0.177320000000     0.870970000000    -0.0147756  
C88      C      0.480650000000     0.247850000000     0.868250000000     0.0279051  
C89      C      0.230000000000     0.497250000000     0.855840000000    -0.0144788  
C90      C      0.160050000000     0.432860000000     0.855910000000    -0.0260069  
C91      C      0.225430000000     0.500820000000     0.809380000000    -0.014583   
C92      C      0.154790000000     0.440300000000     0.809900000000     0.0276414  
C93      C      0.525010000000     0.461120000000     0.600650000000    -0.0130367  
C94      C      0.445310000000     0.513920000000     0.591490000000    -0.0230366  
C95      C      0.493100000000     0.425200000000     0.625930000000    -0.00934401 
C96      C      0.438090000000     0.503510000000     0.637010000000     0.0294791  
C97      C      0.510120000000     0.010680000000     0.038580000000     0.394412   
C98      C      0.172810000000     0.673330000000     0.024530000000     0.397872   
C99      C      0.177100000000     0.989250000000     0.017310000000     0.397152   
C100     C      0.490780000000     0.673840000000     0.023260000000     0.392812   
C101     C      0.494560000000     0.671220000000     0.415040000000     0.392607   
C102     C      0.161130000000     0.002010000000     0.406830000000     0.38411    
C103     C      0.496230000000     0.996850000000     0.414540000000     0.3883     
C104     C      0.173580000000     0.676840000000     0.420050000000     0.394649   
C105     C      0.421480000000     0.922670000000     0.172050000000     0.400832   
C106     C      0.236850000000     0.739780000000     0.166320000000     0.394689   
C107     C      0.415050000000     0.740820000000     0.164130000000     0.396355   
C108     C      0.244840000000     0.915980000000     0.158320000000     0.39364    
C109     C      0.234550000000     0.923120000000     0.268100000000     0.393148   
C110     C      0.413570000000     0.743930000000     0.276220000000     0.389453   
C111     C      0.413390000000     0.916330000000     0.277060000000     0.391206   
C112     C      0.244930000000     0.749100000000     0.280170000000     0.389148   
C113     C      0.229960000000     0.666980000000     0.118760000000    -0.0135159  
C114     C      0.167930000000     0.737950000000     0.115850000000    -0.0249158  
C115     C      0.243070000000     0.675980000000     0.073740000000    -0.0140932  
C116     C      0.184590000000     0.748900000000     0.072110000000     0.0285159  
C117     C      0.175140000000     0.745550000000     0.330510000000    -0.0145881  
C118     C      0.245130000000     0.681350000000     0.332200000000    -0.0261577  
C119     C      0.181100000000     0.752820000000     0.376640000000    -0.0145113  
C120     C      0.252410000000     0.693080000000     0.377380000000     0.0283818  
C121     C      0.176680000000     0.920550000000     0.106590000000    -0.0132177  
C122     C      0.246220000000     0.985020000000     0.107110000000    -0.0240101  
C123     C      0.184820000000     0.913300000000     0.060680000000    -0.0139741  
C124     C      0.254980000000     0.974350000000     0.061770000000     0.0279892  
C125     C      0.482740000000     0.745310000000     0.072060000000    -0.0138551  
C126     C      0.416690000000     0.678220000000     0.068880000000    -0.0249956  
C127     C      0.488480000000     0.735860000000     0.117970000000    -0.0142069  
C128     C      0.425400000000     0.666880000000     0.114100000000     0.0273284  
C129     C      0.485690000000     0.921640000000     0.369680000000    -0.0143058  
C130     C      0.423210000000     0.992470000000     0.367830000000    -0.0247879  
C131     C      0.487130000000     0.921610000000     0.322910000000    -0.0150132  
C132     C      0.428720000000     0.994890000000     0.321500000000     0.0289149  
C133     C      0.421700000000     0.671850000000     0.324490000000    -0.0139448  
C134     C      0.487050000000     0.740110000000     0.322410000000    -0.0256882  
C135     C      0.419260000000     0.677330000000     0.370970000000    -0.0147393  
C136     C      0.480650000000     0.747850000000     0.368250000000     0.0276995  
C137     C      0.230000000000     0.997250000000     0.355840000000    -0.0117372  
C138     C      0.160050000000     0.932860000000     0.355910000000    -0.0259216  
C139     C      0.225430000000     0.000830000000     0.309380000000    -0.0171137  
C140     C      0.154790000000     0.940300000000     0.309900000000     0.027558   
C141     C      0.525010000000     0.961120000000     0.100650000000    -0.0131464  
C142     C      0.445310000000     0.013920000000     0.091490000000    -0.0254313  
C143     C      0.493100000000     0.925200000000     0.125930000000    -0.00917197 
C144     C      0.438090000000     0.003510000000     0.137010000000     0.0293185  
C145     C      0.510120000000     0.010680000000     0.538580000000     0.394737   
C146     C      0.172810000000     0.673330000000     0.524530000000     0.398245   
C147     C      0.177100000000     0.989250000000     0.517310000000     0.397557   
C148     C      0.490780000000     0.673840000000     0.523260000000     0.393227   
C149     C      0.494560000000     0.671220000000     0.915040000000     0.392168   
C150     C      0.161130000000     0.002010000000     0.906830000000     0.383685   
C151     C      0.496230000000     0.996850000000     0.914540000000     0.387905   
C152     C      0.173580000000     0.676840000000     0.920050000000     0.394186   
C153     C      0.421480000000     0.922670000000     0.672050000000     0.400818   
C154     C      0.236850000000     0.739780000000     0.666320000000     0.394692   
C155     C      0.415050000000     0.740820000000     0.664130000000     0.396394   
C156     C      0.244840000000     0.915980000000     0.658320000000     0.393633   
C157     C      0.234550000000     0.923120000000     0.768100000000     0.393142   
C158     C      0.413570000000     0.743930000000     0.776230000000     0.38939    
C159     C      0.413390000000     0.916330000000     0.777060000000     0.391193   
C160     C      0.244930000000     0.749100000000     0.780170000000     0.389143   
C161     C      0.229960000000     0.666980000000     0.618760000000    -0.0135098  
C162     C      0.167930000000     0.737950000000     0.615850000000    -0.0249754  
C163     C      0.243070000000     0.675980000000     0.573740000000    -0.0140723  
C164     C      0.184590000000     0.748900000000     0.572110000000     0.0287985  
C165     C      0.175140000000     0.745550000000     0.830510000000    -0.0146008  
C166     C      0.245130000000     0.681350000000     0.832200000000    -0.0262306  
C167     C      0.181100000000     0.752820000000     0.876640000000    -0.0144732  
C168     C      0.252410000000     0.693080000000     0.877380000000     0.0286647  
C169     C      0.176680000000     0.920550000000     0.606590000000    -0.0132364  
C170     C      0.246220000000     0.985020000000     0.607110000000    -0.0240949  
C171     C      0.184820000000     0.913300000000     0.560680000000    -0.0139097  
C172     C      0.254980000000     0.974350000000     0.561770000000     0.0283274  
C173     C      0.482740000000     0.745310000000     0.572060000000    -0.0138192  
C174     C      0.416690000000     0.678220000000     0.568880000000    -0.0249404  
C175     C      0.488480000000     0.735860000000     0.617970000000    -0.014198   
C176     C      0.425400000000     0.666880000000     0.614100000000     0.0273217  
C177     C      0.485690000000     0.921640000000     0.869680000000    -0.0142651  
C178     C      0.423210000000     0.992470000000     0.867830000000    -0.0247497  
C179     C      0.487130000000     0.921610000000     0.822910000000    -0.0150291  
C180     C      0.428720000000     0.994890000000     0.821500000000     0.0288999  
C181     C      0.421700000000     0.671850000000     0.824490000000    -0.0139415  
C182     C      0.487050000000     0.740110000000     0.822410000000    -0.0257272  
C183     C      0.419260000000     0.677330000000     0.870970000000    -0.0147171  
C184     C      0.480650000000     0.747850000000     0.868250000000     0.0278925  
C185     C      0.230000000000     0.997250000000     0.855840000000    -0.0117226  
C186     C      0.160050000000     0.932860000000     0.855910000000    -0.0259048  
C187     C      0.225430000000     0.000830000000     0.809380000000    -0.0171144  
C188     C      0.154790000000     0.940300000000     0.809900000000     0.0275503  
C189     C      0.525010000000     0.961120000000     0.600650000000    -0.0131668  
C190     C      0.445310000000     0.013920000000     0.591490000000    -0.025386   
C191     C      0.493100000000     0.925200000000     0.625930000000    -0.00916176 
C192     C      0.438090000000     0.003510000000     0.637010000000     0.0292828  
C193     C      0.010120000000     0.510680000000     0.038580000000     0.395526   
C194     C      0.672810000000     0.173330000000     0.024530000000     0.397784   
C195     C      0.677100000000     0.489250000000     0.017310000000     0.395865   
C196     C      0.990780000000     0.173840000000     0.023260000000     0.393709   
C197     C      0.994560000000     0.171220000000     0.415040000000     0.393478   
C198     C      0.661130000000     0.502010000000     0.406830000000     0.386826   
C199     C      0.996230000000     0.496850000000     0.414540000000     0.38784    
C200     C      0.673580000000     0.176840000000     0.420050000000     0.394659   
C201     C      0.921490000000     0.422670000000     0.172050000000     0.400932   
C202     C      0.736850000000     0.239780000000     0.166320000000     0.39468    
C203     C      0.915050000000     0.240830000000     0.164130000000     0.396502   
C204     C      0.744840000000     0.415980000000     0.158320000000     0.393585   
C205     C      0.734550000000     0.423120000000     0.268100000000     0.393238   
C206     C      0.913570000000     0.243930000000     0.276220000000     0.38937    
C207     C      0.913390000000     0.416330000000     0.277060000000     0.391094   
C208     C      0.744930000000     0.249100000000     0.280170000000     0.389055   
C209     C      0.729960000000     0.166980000000     0.118760000000    -0.0134917  
C210     C      0.667930000000     0.237950000000     0.115850000000    -0.0249142  
C211     C      0.743070000000     0.175980000000     0.073740000000    -0.0141288  
C212     C      0.684590000000     0.248900000000     0.072110000000     0.0285061  
C213     C      0.675140000000     0.245550000000     0.330510000000    -0.0146137  
C214     C      0.745130000000     0.181350000000     0.332200000000    -0.026162   
C215     C      0.681100000000     0.252820000000     0.376640000000    -0.0144681  
C216     C      0.752410000000     0.193080000000     0.377380000000     0.0283989  
C217     C      0.676680000000     0.420560000000     0.106590000000    -0.0131973  
C218     C      0.746230000000     0.485020000000     0.107110000000    -0.0251011  
C219     C      0.684820000000     0.413300000000     0.060680000000    -0.014031   
C220     C      0.754980000000     0.474340000000     0.061770000000     0.0269382  
C221     C      0.982740000000     0.245310000000     0.072060000000    -0.0133284  
C222     C      0.916700000000     0.178220000000     0.068880000000    -0.024871   
C223     C      0.988490000000     0.235850000000     0.117970000000    -0.0126295  
C224     C      0.925400000000     0.166880000000     0.114100000000     0.0273087  
C225     C      0.985690000000     0.421640000000     0.369680000000    -0.0135621  
C226     C      0.923210000000     0.492470000000     0.367830000000    -0.0256771  
C227     C      0.987130000000     0.421610000000     0.322910000000    -0.0144264  
C228     C      0.928720000000     0.494880000000     0.321500000000     0.0267701  
C229     C      0.921700000000     0.171850000000     0.324490000000    -0.0139184  
C230     C      0.987050000000     0.240110000000     0.322410000000    -0.0250317  
C231     C      0.919270000000     0.177320000000     0.370970000000    -0.0147144  
C232     C      0.980650000000     0.247850000000     0.368250000000     0.028378   
C233     C      0.730000000000     0.497250000000     0.355840000000    -0.0144826  
C234     C      0.660050000000     0.432860000000     0.355910000000    -0.0259924  
C235     C      0.725430000000     0.500820000000     0.309380000000    -0.0145922  
C236     C      0.654790000000     0.440300000000     0.309900000000     0.0275833  
C237     C      0.025020000000     0.461120000000     0.100650000000    -0.0147111  
C238     C      0.945310000000     0.513920000000     0.091490000000    -0.0231933  
C239     C      0.993110000000     0.425200000000     0.125930000000    -0.00755485 
C240     C      0.938090000000     0.503510000000     0.137010000000     0.0295698  
C241     C      0.010120000000     0.510680000000     0.538580000000     0.395853   
C242     C      0.672810000000     0.173330000000     0.524530000000     0.398156   
C243     C      0.677100000000     0.489250000000     0.517310000000     0.396268   
C244     C      0.990780000000     0.173840000000     0.523260000000     0.394126   
C245     C      0.994560000000     0.171220000000     0.915040000000     0.393039   
C246     C      0.661130000000     0.502010000000     0.906830000000     0.3864     
C247     C      0.996230000000     0.496850000000     0.914540000000     0.387445   
C248     C      0.673580000000     0.176840000000     0.920050000000     0.394195   
C249     C      0.921490000000     0.422670000000     0.672050000000     0.400918   
C250     C      0.736850000000     0.239780000000     0.666320000000     0.394682   
C251     C      0.915050000000     0.240830000000     0.664130000000     0.396541   
C252     C      0.744840000000     0.415980000000     0.658320000000     0.393577   
C253     C      0.734550000000     0.423120000000     0.768100000000     0.393232   
C254     C      0.913570000000     0.243930000000     0.776230000000     0.389307   
C255     C      0.913390000000     0.416330000000     0.777060000000     0.391081   
C256     C      0.744930000000     0.249100000000     0.780170000000     0.38905    
C257     C      0.729960000000     0.166980000000     0.618760000000    -0.0134856  
C258     C      0.667930000000     0.237950000000     0.615850000000    -0.0249739  
C259     C      0.743070000000     0.175980000000     0.573740000000    -0.014108   
C260     C      0.684590000000     0.248900000000     0.572110000000     0.0287889  
C261     C      0.675140000000     0.245550000000     0.830510000000    -0.0146264  
C262     C      0.745130000000     0.181350000000     0.832200000000    -0.0262348  
C263     C      0.681100000000     0.252820000000     0.876640000000    -0.0144302  
C264     C      0.752410000000     0.193080000000     0.877380000000     0.0286818  
C265     C      0.676680000000     0.420560000000     0.606590000000    -0.013216   
C266     C      0.746230000000     0.485020000000     0.607110000000    -0.0251872  
C267     C      0.684820000000     0.413300000000     0.560680000000    -0.0139666  
C268     C      0.754980000000     0.474340000000     0.561770000000     0.0272745  
C269     C      0.982740000000     0.245310000000     0.572060000000    -0.0132914  
C270     C      0.916700000000     0.178220000000     0.568880000000    -0.0248159  
C271     C      0.988490000000     0.235850000000     0.617970000000    -0.0126195  
C272     C      0.925400000000     0.166880000000     0.614100000000     0.027302   
C273     C      0.985690000000     0.421640000000     0.869680000000    -0.0135213  
C274     C      0.923210000000     0.492470000000     0.867830000000    -0.0256391  
C275     C      0.987130000000     0.421610000000     0.822910000000    -0.014442   
C276     C      0.928720000000     0.494880000000     0.821500000000     0.026754   
C277     C      0.921700000000     0.171850000000     0.824490000000    -0.0139152  
C278     C      0.987050000000     0.240110000000     0.822410000000    -0.0250704  
C279     C      0.919270000000     0.177320000000     0.870970000000    -0.0146921  
C280     C      0.980650000000     0.247850000000     0.868250000000     0.0285711  
C281     C      0.730000000000     0.497250000000     0.855840000000    -0.0144692  
C282     C      0.660050000000     0.432860000000     0.855910000000    -0.0259757  
C283     C      0.725430000000     0.500820000000     0.809380000000    -0.0145922  
C284     C      0.654790000000     0.440300000000     0.809900000000     0.0275757  
C285     C      0.025020000000     0.461120000000     0.600650000000    -0.0147331  
C286     C      0.945310000000     0.513920000000     0.591490000000    -0.0231449  
C287     C      0.993110000000     0.425200000000     0.625930000000    -0.00754273 
C288     C      0.938090000000     0.503510000000     0.637010000000     0.029534   
C289     C      0.010120000000     0.010680000000     0.038580000000     0.392705   
C290     C      0.672810000000     0.673330000000     0.024530000000     0.39788    
C291     C      0.677100000000     0.989250000000     0.017310000000     0.397154   
C292     C      0.990780000000     0.673840000000     0.023260000000     0.393711   
C293     C      0.994560000000     0.671220000000     0.415040000000     0.393503   
C294     C      0.661130000000     0.002010000000     0.406830000000     0.384223   
C295     C      0.996230000000     0.996850000000     0.414540000000     0.389276   
C296     C      0.673580000000     0.676840000000     0.420050000000     0.394664   
C297     C      0.921490000000     0.922670000000     0.172050000000     0.400996   
C298     C      0.736850000000     0.739780000000     0.166320000000     0.394694   
C299     C      0.915050000000     0.740820000000     0.164130000000     0.396433   
C300     C      0.744840000000     0.915980000000     0.158320000000     0.393644   
C301     C      0.734550000000     0.923120000000     0.268100000000     0.393146   
C302     C      0.913570000000     0.743930000000     0.276220000000     0.389492   
C303     C      0.913390000000     0.916330000000     0.277060000000     0.391238   
C304     C      0.744930000000     0.749100000000     0.280170000000     0.389151   
C305     C      0.729960000000     0.666980000000     0.118760000000    -0.0135172  
C306     C      0.667930000000     0.737950000000     0.115850000000    -0.0249213  
C307     C      0.743070000000     0.675980000000     0.073740000000    -0.0141072  
C308     C      0.684590000000     0.748900000000     0.072110000000     0.0285051  
C309     C      0.675140000000     0.745550000000     0.330510000000    -0.0146127  
C310     C      0.745130000000     0.681350000000     0.332200000000    -0.0261634  
C311     C      0.681100000000     0.752820000000     0.376640000000    -0.0144732  
C312     C      0.752410000000     0.693080000000     0.377380000000     0.0283817  
C313     C      0.676680000000     0.920550000000     0.106590000000    -0.0132227  
C314     C      0.746230000000     0.985020000000     0.107110000000    -0.024049   
C315     C      0.684820000000     0.913300000000     0.060680000000    -0.0139749  
C316     C      0.754980000000     0.974350000000     0.061770000000     0.0279981  
C317     C      0.982740000000     0.745310000000     0.072060000000    -0.0133125  
C318     C      0.916700000000     0.678220000000     0.068880000000    -0.0248736  
C319     C      0.988490000000     0.735860000000     0.117970000000    -0.0126867  
C320     C      0.925400000000     0.666880000000     0.114100000000     0.0272977  
C321     C      0.985690000000     0.921640000000     0.369680000000    -0.0135175  
C322     C      0.923210000000     0.992470000000     0.367830000000    -0.0247379  
C323     C      0.987130000000     0.921610000000     0.322910000000    -0.0143776  
C324     C      0.928720000000     0.994890000000     0.321500000000     0.0288975  
C325     C      0.921700000000     0.671850000000     0.324490000000    -0.0139432  
C326     C      0.987050000000     0.740110000000     0.322410000000    -0.0250064  
C327     C      0.919270000000     0.677330000000     0.370970000000    -0.0146558  
C328     C      0.980650000000     0.747850000000     0.368250000000     0.028365   
C329     C      0.730000000000     0.997250000000     0.355840000000    -0.0117287  
C330     C      0.660050000000     0.932860000000     0.355910000000    -0.0258905  
C331     C      0.725430000000     0.000830000000     0.309380000000    -0.0171219  
C332     C      0.654790000000     0.940300000000     0.309900000000     0.0274924  
C333     C      0.025020000000     0.961120000000     0.100650000000    -0.0148391  
C334     C      0.945310000000     0.013920000000     0.091490000000    -0.0255376  
C335     C      0.993110000000     0.925200000000     0.125930000000    -0.00737491 
C336     C      0.938090000000     0.003510000000     0.137010000000     0.0293735  
C337     C      0.010120000000     0.010680000000     0.538580000000     0.393028   
C338     C      0.672810000000     0.673330000000     0.524530000000     0.398253   
C339     C      0.677100000000     0.989250000000     0.517310000000     0.397559   
C340     C      0.990780000000     0.673840000000     0.523260000000     0.394127   
C341     C      0.994560000000     0.671220000000     0.915040000000     0.393064   
C342     C      0.661130000000     0.002010000000     0.906830000000     0.383797   
C343     C      0.996230000000     0.996850000000     0.914540000000     0.388882   
C344     C      0.673580000000     0.676840000000     0.920050000000     0.3942     
C345     C      0.921490000000     0.922670000000     0.672050000000     0.400982   
C346     C      0.736850000000     0.739780000000     0.666320000000     0.394697   
C347     C      0.915050000000     0.740820000000     0.664130000000     0.396473   
C348     C      0.744840000000     0.915980000000     0.658320000000     0.393636   
C349     C      0.734550000000     0.923120000000     0.768100000000     0.39314    
C350     C      0.913570000000     0.743930000000     0.776230000000     0.38943    
C351     C      0.913390000000     0.916330000000     0.777060000000     0.391225   
C352     C      0.744930000000     0.749100000000     0.780170000000     0.389146   
C353     C      0.729960000000     0.666980000000     0.618760000000    -0.0135111  
C354     C      0.667930000000     0.737950000000     0.615850000000    -0.024981   
C355     C      0.743070000000     0.675980000000     0.573740000000    -0.0140863  
C356     C      0.684590000000     0.748900000000     0.572110000000     0.0287878  
C357     C      0.675140000000     0.745550000000     0.830510000000    -0.0146255  
C358     C      0.745130000000     0.681350000000     0.832200000000    -0.0262362  
C359     C      0.681100000000     0.752820000000     0.876640000000    -0.0144353  
C360     C      0.752410000000     0.693080000000     0.877380000000     0.0286646  
C361     C      0.676680000000     0.920550000000     0.606590000000    -0.0132414  
C362     C      0.746230000000     0.985020000000     0.607110000000    -0.0241339  
C363     C      0.684820000000     0.913300000000     0.560680000000    -0.0139105  
C364     C      0.754980000000     0.974350000000     0.561770000000     0.0283363  
C365     C      0.982740000000     0.745310000000     0.572060000000    -0.0132755  
C366     C      0.916700000000     0.678220000000     0.568880000000    -0.0248185  
C367     C      0.988490000000     0.735860000000     0.617970000000    -0.0126766  
C368     C      0.925400000000     0.666880000000     0.614100000000     0.027291   
C369     C      0.985690000000     0.921640000000     0.869680000000    -0.0134766  
C370     C      0.923210000000     0.992470000000     0.867830000000    -0.0246997  
C371     C      0.987130000000     0.921610000000     0.822910000000    -0.0143932  
C372     C      0.928720000000     0.994890000000     0.821500000000     0.0288825  
C373     C      0.921700000000     0.671850000000     0.824490000000    -0.0139399  
C374     C      0.987050000000     0.740110000000     0.822410000000    -0.0250451  
C375     C      0.919270000000     0.677330000000     0.870970000000    -0.0146336  
C376     C      0.980650000000     0.747850000000     0.868250000000     0.0285581  
C377     C      0.730000000000     0.997250000000     0.855840000000    -0.0117142  
C378     C      0.660050000000     0.932860000000     0.855910000000    -0.0258737  
C379     C      0.725430000000     0.000830000000     0.809380000000    -0.0171226  
C380     C      0.654790000000     0.940300000000     0.809900000000     0.0274847  
C381     C      0.025020000000     0.961120000000     0.600650000000    -0.0148613  
C382     C      0.945310000000     0.013920000000     0.591490000000    -0.0254925  
C383     C      0.993110000000     0.925200000000     0.625930000000    -0.00736255 
C384     C      0.938090000000     0.003510000000     0.637010000000     0.0293378  
Co1      Co     0.509070000000     0.084330000000     0.970830000000     0.839317   
Co2      Co     0.157280000000     0.584170000000     0.470040000000     0.839673   
Co3      Co     0.583490000000     0.509820000000     0.970740000000     0.836839   
Co4      Co     0.582520000000     0.159260000000     0.471720000000     0.840809   
Co5      Co     0.327630000000     0.405050000000     0.219010000000     0.839925   
Co6      Co     0.326940000000     0.255750000000     0.218930000000     0.839165   
Co7      Co     0.401150000000     0.329810000000     0.219090000000     0.844259   
Co8      Co     0.252690000000     0.331050000000     0.217820000000     0.842681   
Co9      Co     0.509070000000     0.084330000000     0.470830000000     0.843527   
Co10     Co     0.157280000000     0.584170000000     0.970040000000     0.8354     
Co11     Co     0.583490000000     0.509820000000     0.470740000000     0.841084   
Co12     Co     0.582520000000     0.159260000000     0.971720000000     0.836579   
Co13     Co     0.327630000000     0.405050000000     0.719010000000     0.839939   
Co14     Co     0.326940000000     0.255750000000     0.718930000000     0.839184   
Co15     Co     0.401150000000     0.329810000000     0.719090000000     0.844225   
Co16     Co     0.252690000000     0.331050000000     0.717820000000     0.842699   
Co17     Co     0.509070000000     0.584330000000     0.970830000000     0.839371   
Co18     Co     0.157280000000     0.084170000000     0.470040000000     0.83964    
Co19     Co     0.583490000000     0.009820000000     0.970740000000     0.833999   
Co20     Co     0.582520000000     0.659260000000     0.471720000000     0.840906   
Co21     Co     0.327630000000     0.905050000000     0.219010000000     0.83999    
Co22     Co     0.326940000000     0.755750000000     0.218930000000     0.839184   
Co23     Co     0.401150000000     0.829810000000     0.219090000000     0.844229   
Co24     Co     0.252690000000     0.831040000000     0.217820000000     0.842673   
Co25     Co     0.509070000000     0.584330000000     0.470830000000     0.843581   
Co26     Co     0.157280000000     0.084170000000     0.970040000000     0.835367   
Co27     Co     0.583490000000     0.009820000000     0.470740000000     0.838241   
Co28     Co     0.582520000000     0.659260000000     0.971720000000     0.836676   
Co29     Co     0.327630000000     0.905050000000     0.719010000000     0.840004   
Co30     Co     0.326940000000     0.755750000000     0.718930000000     0.839204   
Co31     Co     0.401150000000     0.829810000000     0.719090000000     0.844195   
Co32     Co     0.252690000000     0.831040000000     0.717820000000     0.842691   
Co33     Co     0.009070000000     0.084330000000     0.970830000000     0.8377     
Co34     Co     0.657280000000     0.584170000000     0.470040000000     0.839753   
Co35     Co     0.083490000000     0.509820000000     0.970740000000     0.836766   
Co36     Co     0.082520000000     0.159260000000     0.471720000000     0.840895   
Co37     Co     0.827630000000     0.405050000000     0.219010000000     0.839883   
Co38     Co     0.826940000000     0.255750000000     0.218930000000     0.839158   
Co39     Co     0.901150000000     0.329810000000     0.219090000000     0.844322   
Co40     Co     0.752690000000     0.331050000000     0.217820000000     0.842686   
Co41     Co     0.009070000000     0.084330000000     0.470830000000     0.841907   
Co42     Co     0.657280000000     0.584170000000     0.970040000000     0.83548    
Co43     Co     0.083490000000     0.509820000000     0.470740000000     0.841011   
Co44     Co     0.082520000000     0.159260000000     0.971720000000     0.836666   
Co45     Co     0.827630000000     0.405050000000     0.719010000000     0.839897   
Co46     Co     0.826940000000     0.255750000000     0.718930000000     0.839178   
Co47     Co     0.901150000000     0.329810000000     0.719090000000     0.844289   
Co48     Co     0.752690000000     0.331050000000     0.717820000000     0.842705   
Co49     Co     0.009070000000     0.584330000000     0.970830000000     0.837754   
Co50     Co     0.657280000000     0.084170000000     0.470040000000     0.83972    
Co51     Co     0.083490000000     0.009820000000     0.970740000000     0.833926   
Co52     Co     0.082520000000     0.659260000000     0.471720000000     0.840992   
Co53     Co     0.827630000000     0.905050000000     0.219010000000     0.839948   
Co54     Co     0.826940000000     0.755750000000     0.218930000000     0.839178   
Co55     Co     0.901150000000     0.829810000000     0.219090000000     0.844292   
Co56     Co     0.752690000000     0.831040000000     0.217820000000     0.842678   
Co57     Co     0.009070000000     0.584330000000     0.470830000000     0.841962   
Co58     Co     0.657280000000     0.084170000000     0.970040000000     0.835447   
Co59     Co     0.083490000000     0.009820000000     0.470740000000     0.838167   
Co60     Co     0.082520000000     0.659260000000     0.971720000000     0.836763   
Co61     Co     0.827630000000     0.905050000000     0.719010000000     0.839962   
Co62     Co     0.826940000000     0.755750000000     0.718930000000     0.839197   
Co63     Co     0.901150000000     0.829810000000     0.719090000000     0.844259   
Co64     Co     0.752690000000     0.831040000000     0.717820000000     0.842697   
H1       H      0.135810000000     0.211020000000     0.115200000000     0.048209   
H2       H      0.200020000000     0.137740000000     0.120100000000     0.0433052  
H3       H      0.254640000000     0.139620000000     0.059750000000     0.0521808  
H4       H      0.154830000000     0.273100000000     0.131070000000     0.0547529  
H5       H      0.218410000000     0.273480000000     0.074290000000     0.0360425  
H6       H      0.263250000000     0.151800000000     0.134990000000     0.0516052  
H7       H      0.276030000000     0.201750000000     0.072440000000     0.043867   
H8       H      0.219050000000     0.148710000000     0.329090000000     0.0478905  
H9       H      0.144770000000     0.217460000000     0.325340000000     0.0431543  
H10      H      0.144340000000     0.263750000000     0.389880000000     0.0525463  
H11      H      0.281600000000     0.170400000000     0.318220000000     0.0549064  
H12      H      0.277030000000     0.227020000000     0.378900000000     0.0335818  
H13      H      0.162910000000     0.281800000000     0.316700000000     0.0512302  
H14      H      0.207320000000     0.284900000000     0.381780000000     0.0417293  
H15      H      0.219900000000     0.517480000000     0.110110000000     0.0486343  
H16      H      0.146170000000     0.448730000000     0.110850000000     0.0427273  
H17      H      0.148800000000     0.401580000000     0.046500000000     0.0517546  
H18      H      0.282180000000     0.495840000000     0.122000000000     0.054627   
H19      H      0.280460000000     0.441060000000     0.060310000000     0.0363994  
H20      H      0.163730000000     0.384300000000     0.120000000000     0.0485193  
H21      H      0.211890000000     0.381760000000     0.056380000000     0.0423459  
H22      H      0.386290000000     0.206880000000     0.066090000000     0.0477424  
H23      H      0.455150000000     0.276390000000     0.067810000000     0.0445632  
H24      H      0.500340000000     0.271570000000     0.132840000000     0.0514637  
H25      H      0.404140000000     0.143670000000     0.052510000000     0.0554158  
H26      H      0.457290000000     0.139810000000     0.115500000000     0.0365784  
H27      H      0.519260000000     0.258140000000     0.059400000000     0.0514472  
H28      H      0.519430000000     0.208160000000     0.122360000000     0.0431582  
H29      H      0.391340000000     0.466960000000     0.375520000000     0.0473551  
H30      H      0.457970000000     0.392750000000     0.379590000000     0.0418843  
H31      H      0.494770000000     0.382450000000     0.312500000000     0.0503275  
H32      H      0.414170000000     0.530560000000     0.380130000000     0.0548688  
H33      H      0.461810000000     0.519390000000     0.315290000000     0.0355108  
H34      H      0.523090000000     0.410050000000     0.381430000000     0.0493223  
H35      H      0.519400000000     0.445350000000     0.313120000000     0.0421479  
H36      H      0.517850000000     0.212430000000     0.317120000000     0.0470166  
H37      H      0.448610000000     0.141040000000     0.317210000000     0.0427933  
H38      H      0.409070000000     0.140170000000     0.384280000000     0.0514743  
H39      H      0.498150000000     0.276160000000     0.307530000000     0.0554982  
H40      H      0.448320000000     0.274050000000     0.372200000000     0.0346217  
H41      H      0.384170000000     0.160370000000     0.312950000000     0.0491956  
H42      H      0.388210000000     0.203900000000     0.378310000000     0.0414405  
H43      H      0.185470000000     0.400270000000     0.361750000000     0.0477884  
H44      H      0.260500000000     0.470020000000     0.363100000000     0.0442815  
H45      H      0.262500000000     0.511360000000     0.296480000000     0.0530381  
H46      H      0.122800000000     0.423650000000     0.369350000000     0.0546118  
H47      H      0.129760000000     0.473560000000     0.305650000000     0.0338149  
H48      H      0.241400000000     0.534730000000     0.367920000000     0.050696   
H49      H      0.199020000000     0.532110000000     0.302130000000     0.041565   
H50      H      0.441010000000     0.554960000000     0.085040000000     0.0509175  
H51      H      0.548630000000     0.484490000000     0.121180000000     0.0437073  
H52      H      0.517590000000     0.406250000000     0.148720000000     0.0474141  
H53      H      0.414400000000     0.495000000000     0.074590000000     0.0487545  
H54      H      0.398190000000     0.512130000000     0.144160000000     0.043369   
H55      H      0.551190000000     0.438090000000     0.081930000000     0.0480642  
H56      H      0.478080000000     0.395040000000     0.105740000000     0.046332   
H57      H      0.135810000000     0.211020000000     0.615200000000     0.0482246  
H58      H      0.200020000000     0.137740000000     0.620100000000     0.0432942  
H59      H      0.254640000000     0.139620000000     0.559750000000     0.0519523  
H60      H      0.154830000000     0.273100000000     0.631070000000     0.054797   
H61      H      0.218410000000     0.273480000000     0.574290000000     0.0357769  
H62      H      0.263250000000     0.151800000000     0.634990000000     0.0516141  
H63      H      0.276030000000     0.201750000000     0.572440000000     0.043596   
H64      H      0.219050000000     0.148710000000     0.829090000000     0.0479811  
H65      H      0.144770000000     0.217460000000     0.825340000000     0.0432314  
H66      H      0.144340000000     0.263750000000     0.889880000000     0.0522693  
H67      H      0.281600000000     0.170400000000     0.818220000000     0.0549498  
H68      H      0.277030000000     0.227020000000     0.878900000000     0.0332494  
H69      H      0.162910000000     0.281800000000     0.816700000000     0.0512303  
H70      H      0.207320000000     0.284900000000     0.881780000000     0.0413608  
H71      H      0.219900000000     0.517480000000     0.610110000000     0.0486656  
H72      H      0.146170000000     0.448730000000     0.610850000000     0.0427284  
H73      H      0.148800000000     0.401580000000     0.546500000000     0.051421   
H74      H      0.282180000000     0.495840000000     0.622000000000     0.0546607  
H75      H      0.280460000000     0.441060000000     0.560310000000     0.0360193  
H76      H      0.163730000000     0.384300000000     0.620000000000     0.0485273  
H77      H      0.211890000000     0.381760000000     0.556380000000     0.0420104  
H78      H      0.386290000000     0.206880000000     0.566090000000     0.047407   
H79      H      0.455150000000     0.276390000000     0.567810000000     0.0442081  
H80      H      0.500340000000     0.271570000000     0.632850000000     0.051462   
H81      H      0.404140000000     0.143670000000     0.552510000000     0.0550787  
H82      H      0.457290000000     0.139810000000     0.615500000000     0.036573   
H83      H      0.519260000000     0.258140000000     0.559400000000     0.0511807  
H84      H      0.519430000000     0.208160000000     0.622370000000     0.0431535  
H85      H      0.391340000000     0.466960000000     0.875520000000     0.047017   
H86      H      0.457970000000     0.392750000000     0.879590000000     0.0415532  
H87      H      0.494770000000     0.382450000000     0.812500000000     0.0503323  
H88      H      0.414170000000     0.530560000000     0.880130000000     0.0546507  
H89      H      0.461810000000     0.519390000000     0.815290000000     0.0355762  
H90      H      0.523090000000     0.410050000000     0.881430000000     0.0491043  
H91      H      0.519400000000     0.445350000000     0.813120000000     0.0421975  
H92      H      0.517850000000     0.212430000000     0.817120000000     0.047104   
H93      H      0.448610000000     0.141040000000     0.817210000000     0.0428517  
H94      H      0.409070000000     0.140170000000     0.884280000000     0.0512538  
H95      H      0.498150000000     0.276160000000     0.807530000000     0.0555336  
H96      H      0.448320000000     0.274050000000     0.872200000000     0.0343284  
H97      H      0.384170000000     0.160370000000     0.812950000000     0.0492048  
H98      H      0.388210000000     0.203900000000     0.878310000000     0.0411592  
H99      H      0.185470000000     0.400270000000     0.861750000000     0.0475358  
H100     H      0.260500000000     0.470020000000     0.863100000000     0.0440003  
H101     H      0.262500000000     0.511360000000     0.796480000000     0.0530467  
H102     H      0.122800000000     0.423650000000     0.869350000000     0.0544572  
H103     H      0.129760000000     0.473560000000     0.805650000000     0.0338782  
H104     H      0.241400000000     0.534730000000     0.867920000000     0.050564   
H105     H      0.199020000000     0.532110000000     0.802130000000     0.0416256  
H106     H      0.441010000000     0.554960000000     0.585040000000     0.0508327  
H107     H      0.548630000000     0.484490000000     0.621180000000     0.0437047  
H108     H      0.517590000000     0.406250000000     0.648720000000     0.0474217  
H109     H      0.414400000000     0.495000000000     0.574590000000     0.0484709  
H110     H      0.398190000000     0.512130000000     0.644160000000     0.0433777  
H111     H      0.551190000000     0.438090000000     0.581930000000     0.0479303  
H112     H      0.478080000000     0.395040000000     0.605740000000     0.0461534  
H113     H      0.135810000000     0.711020000000     0.115200000000     0.0482383  
H114     H      0.200020000000     0.637740000000     0.120100000000     0.0434012  
H115     H      0.254640000000     0.639620000000     0.059750000000     0.0521847  
H116     H      0.154830000000     0.773100000000     0.131070000000     0.0547602  
H117     H      0.218410000000     0.773480000000     0.074290000000     0.0360453  
H118     H      0.263250000000     0.651800000000     0.134990000000     0.0516678  
H119     H      0.276030000000     0.701750000000     0.072440000000     0.043863   
H120     H      0.219050000000     0.648710000000     0.329090000000     0.0479371  
H121     H      0.144770000000     0.717460000000     0.325340000000     0.0431807  
H122     H      0.144340000000     0.763750000000     0.389880000000     0.0525517  
H123     H      0.281600000000     0.670400000000     0.318220000000     0.0549138  
H124     H      0.277030000000     0.727020000000     0.378900000000     0.0335903  
H125     H      0.162910000000     0.781800000000     0.316700000000     0.0512295  
H126     H      0.207320000000     0.784900000000     0.381780000000     0.0417459  
H127     H      0.219900000000     0.017480000000     0.110110000000     0.0476095  
H128     H      0.146170000000     0.948720000000     0.110850000000     0.0429122  
H129     H      0.148800000000     0.901580000000     0.046500000000     0.051745   
H130     H      0.282180000000     0.995840000000     0.122000000000     0.0548377  
H131     H      0.280460000000     0.941060000000     0.060310000000     0.0363393  
H132     H      0.163730000000     0.884300000000     0.120000000000     0.0485425  
H133     H      0.211890000000     0.881760000000     0.056380000000     0.0423431  
H134     H      0.386290000000     0.706880000000     0.066090000000     0.0477468  
H135     H      0.455150000000     0.776390000000     0.067810000000     0.0445774  
H136     H      0.500340000000     0.771570000000     0.132840000000     0.0514846  
H137     H      0.404140000000     0.643670000000     0.052510000000     0.055455   
H138     H      0.457290000000     0.639810000000     0.115500000000     0.0366025  
H139     H      0.519260000000     0.758140000000     0.059400000000     0.0514514  
H140     H      0.519430000000     0.708160000000     0.122360000000     0.0431948  
H141     H      0.391340000000     0.966960000000     0.375520000000     0.0474324  
H142     H      0.457970000000     0.892750000000     0.379590000000     0.0418871  
H143     H      0.494770000000     0.882440000000     0.312500000000     0.050321   
H144     H      0.414170000000     0.030560000000     0.380130000000     0.0540723  
H145     H      0.461810000000     0.019390000000     0.315290000000     0.0343027  
H146     H      0.523090000000     0.910050000000     0.381430000000     0.0493185  
H147     H      0.519400000000     0.945350000000     0.313120000000     0.0423292  
H148     H      0.517850000000     0.712430000000     0.317120000000     0.0470382  
H149     H      0.448610000000     0.641040000000     0.317210000000     0.0428299  
H150     H      0.409070000000     0.640160000000     0.384280000000     0.0514669  
H151     H      0.498150000000     0.776170000000     0.307530000000     0.0554901  
H152     H      0.448320000000     0.774050000000     0.372200000000     0.0346295  
H153     H      0.384170000000     0.660370000000     0.312950000000     0.0491949  
H154     H      0.388210000000     0.703900000000     0.378310000000     0.041429   
H155     H      0.185470000000     0.900260000000     0.361750000000     0.0477864  
H156     H      0.260500000000     0.970030000000     0.363100000000     0.044033   
H157     H      0.262500000000     0.011360000000     0.296480000000     0.0532567  
H158     H      0.122800000000     0.923640000000     0.369350000000     0.0546494  
H159     H      0.129760000000     0.973560000000     0.305650000000     0.0341681  
H160     H      0.241400000000     0.034730000000     0.367920000000     0.0495507  
H161     H      0.199020000000     0.032120000000     0.302130000000     0.0417854  
H162     H      0.441010000000     0.054960000000     0.085040000000     0.0513391  
H163     H      0.548630000000     0.984490000000     0.121180000000     0.0441255  
H164     H      0.517590000000     0.906250000000     0.148720000000     0.0474433  
H165     H      0.414400000000     0.995000000000     0.074590000000     0.0501318  
H166     H      0.398190000000     0.012130000000     0.144160000000     0.0430167  
H167     H      0.551190000000     0.938090000000     0.081930000000     0.048163   
H168     H      0.478080000000     0.895040000000     0.105740000000     0.0463427  
H169     H      0.135810000000     0.711020000000     0.615200000000     0.048254   
H170     H      0.200020000000     0.637740000000     0.620100000000     0.0433903  
H171     H      0.254640000000     0.639620000000     0.559750000000     0.0519562  
H172     H      0.154830000000     0.773100000000     0.631070000000     0.0548042  
H173     H      0.218410000000     0.773480000000     0.574290000000     0.0357798  
H174     H      0.263250000000     0.651800000000     0.634990000000     0.0516768  
H175     H      0.276030000000     0.701750000000     0.572440000000     0.0435921  
H176     H      0.219050000000     0.648710000000     0.829090000000     0.0480276  
H177     H      0.144770000000     0.717460000000     0.825340000000     0.0432578  
H178     H      0.144340000000     0.763750000000     0.889880000000     0.0522748  
H179     H      0.281600000000     0.670400000000     0.818220000000     0.0549572  
H180     H      0.277030000000     0.727020000000     0.878900000000     0.0332579  
H181     H      0.162910000000     0.781800000000     0.816700000000     0.0512296  
H182     H      0.207320000000     0.784900000000     0.881780000000     0.0413774  
H183     H      0.219900000000     0.017480000000     0.610110000000     0.0476396  
H184     H      0.146170000000     0.948720000000     0.610850000000     0.0429137  
H185     H      0.148800000000     0.901580000000     0.546500000000     0.0514116  
H186     H      0.282180000000     0.995840000000     0.622000000000     0.0548717  
H187     H      0.280460000000     0.941060000000     0.560310000000     0.0359593  
H188     H      0.163730000000     0.884300000000     0.620000000000     0.0485505  
H189     H      0.211890000000     0.881760000000     0.556380000000     0.0420078  
H190     H      0.386290000000     0.706880000000     0.566090000000     0.0474114  
H191     H      0.455150000000     0.776390000000     0.567810000000     0.0442224  
H192     H      0.500340000000     0.771570000000     0.632850000000     0.0514829  
H193     H      0.404140000000     0.643670000000     0.552510000000     0.0551179  
H194     H      0.457290000000     0.639810000000     0.615500000000     0.0365971  
H195     H      0.519260000000     0.758140000000     0.559400000000     0.051185   
H196     H      0.519430000000     0.708160000000     0.622370000000     0.0431901  
H197     H      0.391340000000     0.966960000000     0.875520000000     0.0470944  
H198     H      0.457970000000     0.892750000000     0.879590000000     0.0415561  
H199     H      0.494770000000     0.882440000000     0.812500000000     0.0503258  
H200     H      0.414170000000     0.030560000000     0.880130000000     0.0538541  
H201     H      0.461810000000     0.019390000000     0.815290000000     0.0343676  
H202     H      0.523090000000     0.910050000000     0.881430000000     0.0491006  
H203     H      0.519400000000     0.945350000000     0.813120000000     0.042379   
H204     H      0.517850000000     0.712430000000     0.817120000000     0.0471256  
H205     H      0.448610000000     0.641040000000     0.817210000000     0.0428882  
H206     H      0.409070000000     0.640160000000     0.884280000000     0.0512465  
H207     H      0.498150000000     0.776170000000     0.807530000000     0.0555255  
H208     H      0.448320000000     0.774050000000     0.872200000000     0.0343363  
H209     H      0.384170000000     0.660370000000     0.812950000000     0.0492041  
H210     H      0.388210000000     0.703900000000     0.878310000000     0.0411479  
H211     H      0.185470000000     0.900260000000     0.861750000000     0.0475338  
H212     H      0.260500000000     0.970030000000     0.863100000000     0.0437517  
H213     H      0.262500000000     0.011360000000     0.796480000000     0.0532653  
H214     H      0.122800000000     0.923640000000     0.869350000000     0.0544948  
H215     H      0.129760000000     0.973560000000     0.805650000000     0.0342316  
H216     H      0.241400000000     0.034730000000     0.867920000000     0.0494183  
H217     H      0.199020000000     0.032120000000     0.802130000000     0.041846   
H218     H      0.441010000000     0.054960000000     0.585040000000     0.0512549  
H219     H      0.548630000000     0.984490000000     0.621180000000     0.0441235  
H220     H      0.517590000000     0.906250000000     0.648720000000     0.0474509  
H221     H      0.414400000000     0.995000000000     0.574590000000     0.0498504  
H222     H      0.398190000000     0.012130000000     0.644160000000     0.043025   
H223     H      0.551190000000     0.938090000000     0.581930000000     0.0480294  
H224     H      0.478080000000     0.895040000000     0.605740000000     0.0461642  
H225     H      0.635810000000     0.211020000000     0.115200000000     0.0482596  
H226     H      0.700020000000     0.137740000000     0.120100000000     0.0433334  
H227     H      0.754630000000     0.139620000000     0.059750000000     0.05219    
H228     H      0.654830000000     0.273100000000     0.131070000000     0.0547854  
H229     H      0.718410000000     0.273480000000     0.074290000000     0.0360441  
H230     H      0.763250000000     0.151800000000     0.134990000000     0.0516084  
H231     H      0.776030000000     0.201750000000     0.072440000000     0.0438709  
H232     H      0.719050000000     0.148710000000     0.329090000000     0.0479108  
H233     H      0.644770000000     0.217460000000     0.325340000000     0.0432117  
H234     H      0.644330000000     0.263750000000     0.389880000000     0.0525298  
H235     H      0.781600000000     0.170400000000     0.318220000000     0.0549084  
H236     H      0.777030000000     0.227020000000     0.378900000000     0.0335832  
H237     H      0.662910000000     0.281800000000     0.316700000000     0.0512617  
H238     H      0.707320000000     0.284900000000     0.381780000000     0.0417201  
H239     H      0.719900000000     0.517480000000     0.110110000000     0.0486586  
H240     H      0.646170000000     0.448730000000     0.110850000000     0.042767   
H241     H      0.648800000000     0.401580000000     0.046500000000     0.0517836  
H242     H      0.782180000000     0.495840000000     0.122000000000     0.0546422  
H243     H      0.780460000000     0.441060000000     0.060310000000     0.0364066  
H244     H      0.663730000000     0.384300000000     0.120000000000     0.0485448  
H245     H      0.711890000000     0.381760000000     0.056380000000     0.0423483  
H246     H      0.886280000000     0.206880000000     0.066090000000     0.0476942  
H247     H      0.955150000000     0.276390000000     0.067810000000     0.0445901  
H248     H      0.000340000000     0.271570000000     0.132840000000     0.0505924  
H249     H      0.904140000000     0.143670000000     0.052510000000     0.0553737  
H250     H      0.957290000000     0.139810000000     0.115500000000     0.0366959  
H251     H      0.019260000000     0.258140000000     0.059400000000     0.0509137  
H252     H      0.019430000000     0.208160000000     0.122360000000     0.0423383  
H253     H      0.891340000000     0.466960000000     0.375520000000     0.0473395  
H254     H      0.957970000000     0.392750000000     0.379590000000     0.0418379  
H255     H      0.994770000000     0.382450000000     0.312500000000     0.0504192  
H256     H      0.914170000000     0.530560000000     0.380130000000     0.0548602  
H257     H      0.961810000000     0.519390000000     0.315290000000     0.0356596  
H258     H      0.023090000000     0.410050000000     0.381430000000     0.0487236  
H259     H      0.019400000000     0.445350000000     0.313120000000     0.0414877  
H260     H      0.017850000000     0.212430000000     0.317120000000     0.0463392  
H261     H      0.948620000000     0.141040000000     0.317210000000     0.0429095  
H262     H      0.909080000000     0.140170000000     0.384280000000     0.0514608  
H263     H      0.998150000000     0.276160000000     0.307530000000     0.0555975  
H264     H      0.948320000000     0.274050000000     0.372200000000     0.0345734  
H265     H      0.884170000000     0.160370000000     0.312950000000     0.0492017  
H266     H      0.888210000000     0.203900000000     0.378310000000     0.0414158  
H267     H      0.685470000000     0.400270000000     0.361750000000     0.0477786  
H268     H      0.760500000000     0.470020000000     0.363100000000     0.0442759  
H269     H      0.762500000000     0.511360000000     0.296480000000     0.0530416  
H270     H      0.622800000000     0.423650000000     0.369350000000     0.0546308  
H271     H      0.629760000000     0.473560000000     0.305650000000     0.0338993  
H272     H      0.741400000000     0.534730000000     0.367920000000     0.0506925  
H273     H      0.699020000000     0.532110000000     0.302130000000     0.0415992  
H274     H      0.941010000000     0.554960000000     0.085040000000     0.0509907  
H275     H      0.048640000000     0.484490000000     0.121180000000     0.0438796  
H276     H      0.017590000000     0.406250000000     0.148720000000     0.0465286  
H277     H      0.914400000000     0.495000000000     0.074590000000     0.0488212  
H278     H      0.898190000000     0.512130000000     0.144160000000     0.0433509  
H279     H      0.051190000000     0.438090000000     0.081930000000     0.048333   
H280     H      0.978080000000     0.395040000000     0.105740000000     0.0461704  
H281     H      0.635810000000     0.211020000000     0.615200000000     0.0482753  
H282     H      0.700020000000     0.137740000000     0.620100000000     0.0433224  
H283     H      0.754630000000     0.139620000000     0.559750000000     0.0519616  
H284     H      0.654830000000     0.273100000000     0.631070000000     0.0548295  
H285     H      0.718410000000     0.273480000000     0.574290000000     0.0357786  
H286     H      0.763250000000     0.151800000000     0.634990000000     0.0516173  
H287     H      0.776030000000     0.201750000000     0.572440000000     0.0436     
H288     H      0.719050000000     0.148710000000     0.829090000000     0.0480013  
H289     H      0.644770000000     0.217460000000     0.825340000000     0.0432889  
H290     H      0.644330000000     0.263750000000     0.889880000000     0.0522528  
H291     H      0.781600000000     0.170400000000     0.818220000000     0.0549518  
H292     H      0.777030000000     0.227020000000     0.878900000000     0.0332508  
H293     H      0.662910000000     0.281800000000     0.816700000000     0.0512619  
H294     H      0.707320000000     0.284900000000     0.881780000000     0.0413516  
H295     H      0.719900000000     0.517480000000     0.610110000000     0.0486898  
H296     H      0.646170000000     0.448730000000     0.610850000000     0.0427682  
H297     H      0.648800000000     0.401580000000     0.546500000000     0.05145    
H298     H      0.782180000000     0.495840000000     0.622000000000     0.0546758  
H299     H      0.780460000000     0.441060000000     0.560310000000     0.0360266  
H300     H      0.663730000000     0.384300000000     0.620000000000     0.0485528  
H301     H      0.711890000000     0.381760000000     0.556380000000     0.0420129  
H302     H      0.886280000000     0.206880000000     0.566090000000     0.0473588  
H303     H      0.955150000000     0.276390000000     0.567810000000     0.044235   
H304     H      0.000340000000     0.271570000000     0.632850000000     0.0505901  
H305     H      0.904140000000     0.143670000000     0.552510000000     0.0550368  
H306     H      0.957290000000     0.139810000000     0.615500000000     0.0366906  
H307     H      0.019260000000     0.258140000000     0.559400000000     0.0506465  
H308     H      0.019430000000     0.208160000000     0.622370000000     0.042333   
H309     H      0.891340000000     0.466960000000     0.875520000000     0.0470014  
H310     H      0.957970000000     0.392750000000     0.879590000000     0.0415068  
H311     H      0.994770000000     0.382450000000     0.812500000000     0.0504241  
H312     H      0.914170000000     0.530560000000     0.880130000000     0.0546422  
H313     H      0.961810000000     0.519390000000     0.815290000000     0.0357251  
H314     H      0.023090000000     0.410050000000     0.881430000000     0.0485056  
H315     H      0.019400000000     0.445350000000     0.813120000000     0.0415372  
H316     H      0.017850000000     0.212430000000     0.817120000000     0.0464264  
H317     H      0.948620000000     0.141040000000     0.817210000000     0.0429679  
H318     H      0.909080000000     0.140170000000     0.884280000000     0.0512405  
H319     H      0.998150000000     0.276160000000     0.807530000000     0.0556331  
H320     H      0.948320000000     0.274050000000     0.872200000000     0.0342802  
H321     H      0.884170000000     0.160370000000     0.812950000000     0.0492109  
H322     H      0.888210000000     0.203900000000     0.878310000000     0.0411347  
H323     H      0.685470000000     0.400270000000     0.861750000000     0.0475259  
H324     H      0.760500000000     0.470020000000     0.863100000000     0.0439947  
H325     H      0.762500000000     0.511360000000     0.796480000000     0.0530502  
H326     H      0.622800000000     0.423650000000     0.869350000000     0.0544762  
H327     H      0.629760000000     0.473560000000     0.805650000000     0.0339625  
H328     H      0.741400000000     0.534730000000     0.867920000000     0.0505605  
H329     H      0.699020000000     0.532110000000     0.802130000000     0.0416598  
H330     H      0.941010000000     0.554960000000     0.585040000000     0.050906   
H331     H      0.048640000000     0.484490000000     0.621180000000     0.0438773  
H332     H      0.017590000000     0.406250000000     0.648720000000     0.0465353  
H333     H      0.914400000000     0.495000000000     0.574590000000     0.0485378  
H334     H      0.898190000000     0.512130000000     0.644160000000     0.0433596  
H335     H      0.051190000000     0.438090000000     0.581930000000     0.0481994  
H336     H      0.978080000000     0.395040000000     0.605740000000     0.0459917  
H337     H      0.635810000000     0.711020000000     0.115200000000     0.0482888  
H338     H      0.700020000000     0.637740000000     0.120100000000     0.0434293  
H339     H      0.754630000000     0.639620000000     0.059750000000     0.052194   
H340     H      0.654830000000     0.773100000000     0.131070000000     0.0547927  
H341     H      0.718410000000     0.773480000000     0.074290000000     0.0360469  
H342     H      0.763250000000     0.651800000000     0.134990000000     0.051671   
H343     H      0.776030000000     0.701750000000     0.072440000000     0.0438669  
H344     H      0.719050000000     0.648710000000     0.329090000000     0.0479573  
H345     H      0.644770000000     0.717460000000     0.325340000000     0.0432381  
H346     H      0.644330000000     0.763750000000     0.389880000000     0.0525352  
H347     H      0.781600000000     0.670400000000     0.318220000000     0.0549158  
H348     H      0.777030000000     0.727020000000     0.378900000000     0.0335917  
H349     H      0.662910000000     0.781800000000     0.316700000000     0.051261   
H350     H      0.707320000000     0.784900000000     0.381780000000     0.0417366  
H351     H      0.719900000000     0.017480000000     0.110110000000     0.0476344  
H352     H      0.646170000000     0.948720000000     0.110850000000     0.042952   
H353     H      0.648800000000     0.901580000000     0.046500000000     0.051774   
H354     H      0.782180000000     0.995840000000     0.122000000000     0.0548526  
H355     H      0.780460000000     0.941060000000     0.060310000000     0.0363465  
H356     H      0.663730000000     0.884300000000     0.120000000000     0.048568   
H357     H      0.711890000000     0.881760000000     0.056380000000     0.0423455  
H358     H      0.886280000000     0.706880000000     0.066090000000     0.0476985  
H359     H      0.955150000000     0.776390000000     0.067810000000     0.0446042  
H360     H      0.000340000000     0.771570000000     0.132840000000     0.0506137  
H361     H      0.904140000000     0.643670000000     0.052510000000     0.0554128  
H362     H      0.957290000000     0.639810000000     0.115500000000     0.0367199  
H363     H      0.019260000000     0.758140000000     0.059400000000     0.0509183  
H364     H      0.019430000000     0.708160000000     0.122360000000     0.0423755  
H365     H      0.891340000000     0.966960000000     0.375520000000     0.0474168  
H366     H      0.957970000000     0.892750000000     0.379590000000     0.0418408  
H367     H      0.994770000000     0.882440000000     0.312500000000     0.0504127  
H368     H      0.914170000000     0.030560000000     0.380130000000     0.0540642  
H369     H      0.961810000000     0.019390000000     0.315290000000     0.0344524  
H370     H      0.023090000000     0.910050000000     0.381430000000     0.0487204  
H371     H      0.019400000000     0.945350000000     0.313120000000     0.0416696  
H372     H      0.017850000000     0.712430000000     0.317120000000     0.0463611  
H373     H      0.948620000000     0.641040000000     0.317210000000     0.0429459  
H374     H      0.909080000000     0.640160000000     0.384280000000     0.0514535  
H375     H      0.998150000000     0.776170000000     0.307530000000     0.0555894  
H376     H      0.948320000000     0.774050000000     0.372200000000     0.0345812  
H377     H      0.884170000000     0.660370000000     0.312950000000     0.0492009  
H378     H      0.888210000000     0.703900000000     0.378310000000     0.0414044  
H379     H      0.685470000000     0.900260000000     0.361750000000     0.0477765  
H380     H      0.760500000000     0.970030000000     0.363100000000     0.0440274  
H381     H      0.762500000000     0.011360000000     0.296480000000     0.0532601  
H382     H      0.622800000000     0.923640000000     0.369350000000     0.0546683  
H383     H      0.629760000000     0.973560000000     0.305650000000     0.0342523  
H384     H      0.741400000000     0.034730000000     0.367920000000     0.0495475  
H385     H      0.699020000000     0.032120000000     0.302130000000     0.0418195  
H386     H      0.941010000000     0.054960000000     0.085040000000     0.0514119  
H387     H      0.048640000000     0.984490000000     0.121180000000     0.0442975  
H388     H      0.017590000000     0.906250000000     0.148720000000     0.0465586  
H389     H      0.914400000000     0.995000000000     0.074590000000     0.0501975  
H390     H      0.898190000000     0.012130000000     0.144160000000     0.0429988  
H391     H      0.051190000000     0.938090000000     0.081930000000     0.0484315  
H392     H      0.978080000000     0.895040000000     0.105740000000     0.0461814  
H393     H      0.635810000000     0.711020000000     0.615200000000     0.0483046  
H394     H      0.700020000000     0.637740000000     0.620100000000     0.0434184  
H395     H      0.754630000000     0.639620000000     0.559750000000     0.0519655  
H396     H      0.654830000000     0.773100000000     0.631070000000     0.0548367  
H397     H      0.718410000000     0.773480000000     0.574290000000     0.0357814  
H398     H      0.763250000000     0.651800000000     0.634990000000     0.0516799  
H399     H      0.776030000000     0.701750000000     0.572440000000     0.0435961  
H400     H      0.719050000000     0.648710000000     0.829090000000     0.0480479  
H401     H      0.644770000000     0.717460000000     0.825340000000     0.0433152  
H402     H      0.644330000000     0.763750000000     0.889880000000     0.0522583  
H403     H      0.781600000000     0.670400000000     0.818220000000     0.0549592  
H404     H      0.777030000000     0.727020000000     0.878900000000     0.0332594  
H405     H      0.662910000000     0.781800000000     0.816700000000     0.0512612  
H406     H      0.707320000000     0.784900000000     0.881780000000     0.0413682  
H407     H      0.719900000000     0.017480000000     0.610110000000     0.0476645  
H408     H      0.646170000000     0.948720000000     0.610850000000     0.0429534  
H409     H      0.648800000000     0.901580000000     0.546500000000     0.0514406  
H410     H      0.782180000000     0.995840000000     0.622000000000     0.0548867  
H411     H      0.780460000000     0.941060000000     0.560310000000     0.0359666  
H412     H      0.663730000000     0.884300000000     0.620000000000     0.048576   
H413     H      0.711890000000     0.881760000000     0.556380000000     0.0420102  
H414     H      0.886280000000     0.706880000000     0.566090000000     0.0473633  
H415     H      0.955150000000     0.776390000000     0.567810000000     0.0442493  
H416     H      0.000340000000     0.771570000000     0.632850000000     0.0506114  
H417     H      0.904140000000     0.643670000000     0.552510000000     0.055076   
H418     H      0.957290000000     0.639810000000     0.615500000000     0.0367147  
H419     H      0.019260000000     0.758140000000     0.559400000000     0.0506512  
H420     H      0.019430000000     0.708160000000     0.622370000000     0.0423702  
H421     H      0.891340000000     0.966960000000     0.875520000000     0.0470789  
H422     H      0.957970000000     0.892750000000     0.879590000000     0.0415098  
H423     H      0.994770000000     0.882440000000     0.812500000000     0.0504176  
H424     H      0.914170000000     0.030560000000     0.880130000000     0.0538461  
H425     H      0.961810000000     0.019390000000     0.815290000000     0.0345175  
H426     H      0.023090000000     0.910050000000     0.881430000000     0.0485024  
H427     H      0.019400000000     0.945350000000     0.813120000000     0.0417192  
H428     H      0.017850000000     0.712430000000     0.817120000000     0.0464484  
H429     H      0.948620000000     0.641040000000     0.817210000000     0.0430044  
H430     H      0.909080000000     0.640160000000     0.884280000000     0.0512332  
H431     H      0.998150000000     0.776170000000     0.807530000000     0.0556249  
H432     H      0.948320000000     0.774050000000     0.872200000000     0.0342881  
H433     H      0.884170000000     0.660370000000     0.812950000000     0.0492101  
H434     H      0.888210000000     0.703900000000     0.878310000000     0.0411233  
H435     H      0.685470000000     0.900260000000     0.861750000000     0.0475239  
H436     H      0.760500000000     0.970030000000     0.863100000000     0.0437462  
H437     H      0.762500000000     0.011360000000     0.796480000000     0.0532688  
H438     H      0.622800000000     0.923640000000     0.869350000000     0.0545138  
H439     H      0.629760000000     0.973560000000     0.805650000000     0.0343158  
H440     H      0.741400000000     0.034730000000     0.867920000000     0.0494152  
H441     H      0.699020000000     0.032120000000     0.802130000000     0.0418801  
H442     H      0.941010000000     0.054960000000     0.585040000000     0.0513279  
H443     H      0.048640000000     0.984490000000     0.621180000000     0.0442958  
H444     H      0.017590000000     0.906250000000     0.648720000000     0.0465654  
H445     H      0.914400000000     0.995000000000     0.574590000000     0.0499163  
H446     H      0.898190000000     0.012130000000     0.644160000000     0.0430071  
H447     H      0.051190000000     0.938090000000     0.581930000000     0.0482982  
H448     H      0.978080000000     0.895040000000     0.605740000000     0.0460027  
N1       N      0.199860000000     0.200070000000     0.053060000000    -0.164845   
N2       N      0.210720000000     0.214150000000     0.136990000000    -0.161437   
N3       N      0.202450000000     0.206470000000     0.394740000000    -0.164565   
N4       N      0.222220000000     0.225980000000     0.312550000000    -0.161149   
N5       N      0.206010000000     0.460020000000     0.043010000000    -0.163945   
N6       N      0.222930000000     0.440010000000     0.125920000000    -0.161366   
N7       N      0.441380000000     0.214520000000     0.134800000000    -0.164539   
N8       N      0.463490000000     0.199380000000     0.051990000000    -0.160437   
N9       N      0.440260000000     0.443120000000     0.305830000000    -0.163673   
N10      N      0.469710000000     0.471370000000     0.385270000000    -0.160598   
N11      N      0.467040000000     0.198250000000     0.386890000000    -0.16441    
N12      N      0.439870000000     0.219150000000     0.305930000000    -0.160867   
N13      N      0.205220000000     0.452950000000     0.293010000000    -0.164185   
N14      N      0.182650000000     0.478700000000     0.373960000000    -0.160566   
N15      N      0.450740000000     0.450560000000     0.146460000000    -0.167764   
N16      N      0.493470000000     0.494650000000     0.075610000000    -0.161666   
N17      N      0.199860000000     0.200070000000     0.553060000000    -0.165167   
N18      N      0.210720000000     0.214150000000     0.636990000000    -0.161419   
N19      N      0.202450000000     0.206470000000     0.894740000000    -0.164733   
N20      N      0.222220000000     0.225980000000     0.812550000000    -0.161126   
N21      N      0.206010000000     0.460020000000     0.543010000000    -0.164297   
N22      N      0.222930000000     0.440010000000     0.625920000000    -0.161348   
N23      N      0.441380000000     0.214520000000     0.634800000000    -0.164539   
N24      N      0.463490000000     0.199380000000     0.551980000000    -0.16078    
N25      N      0.440260000000     0.443120000000     0.805830000000    -0.163665   
N26      N      0.469710000000     0.471370000000     0.885270000000    -0.160684   
N27      N      0.467040000000     0.198250000000     0.886890000000    -0.16452    
N28      N      0.439870000000     0.219150000000     0.805930000000    -0.16088    
N29      N      0.205220000000     0.452950000000     0.793010000000    -0.164174   
N30      N      0.182650000000     0.478700000000     0.873960000000    -0.160619   
N31      N      0.450740000000     0.450560000000     0.646460000000    -0.167769   
N32      N      0.493470000000     0.494650000000     0.575610000000    -0.16186    
N33      N      0.199860000000     0.700070000000     0.053060000000    -0.164864   
N34      N      0.210720000000     0.714150000000     0.136990000000    -0.161423   
N35      N      0.202450000000     0.706470000000     0.394740000000    -0.16456    
N36      N      0.222220000000     0.725980000000     0.312550000000    -0.161159   
N37      N      0.206010000000     0.960020000000     0.043010000000    -0.164078   
N38      N      0.222930000000     0.940010000000     0.125920000000    -0.161404   
N39      N      0.441380000000     0.714510000000     0.134800000000    -0.164526   
N40      N      0.463490000000     0.699380000000     0.051990000000    -0.160433   
N41      N      0.440260000000     0.943120000000     0.305830000000    -0.163806   
N42      N      0.469710000000     0.971370000000     0.385270000000    -0.160762   
N43      N      0.467040000000     0.698250000000     0.386890000000    -0.164415   
N44      N      0.439870000000     0.719150000000     0.305930000000    -0.160884   
N45      N      0.205220000000     0.952950000000     0.293010000000    -0.16347    
N46      N      0.182650000000     0.978700000000     0.373960000000    -0.159955   
N47      N      0.450740000000     0.950560000000     0.146460000000    -0.167329   
N48      N      0.493470000000     0.994650000000     0.075610000000    -0.160084   
N49      N      0.199860000000     0.700070000000     0.553060000000    -0.165186   
N50      N      0.210720000000     0.714150000000     0.636990000000    -0.161405   
N51      N      0.202450000000     0.706470000000     0.894740000000    -0.164727   
N52      N      0.222220000000     0.725980000000     0.812550000000    -0.161136   
N53      N      0.206010000000     0.960020000000     0.543010000000    -0.16443    
N54      N      0.222930000000     0.940010000000     0.625920000000    -0.161386   
N55      N      0.441380000000     0.714510000000     0.634800000000    -0.164526   
N56      N      0.463490000000     0.699380000000     0.551980000000    -0.160776   
N57      N      0.440260000000     0.943120000000     0.805830000000    -0.163799   
N58      N      0.469710000000     0.971370000000     0.885270000000    -0.160848   
N59      N      0.467040000000     0.698250000000     0.886890000000    -0.164525   
N60      N      0.439870000000     0.719150000000     0.805930000000    -0.160897   
N61      N      0.205220000000     0.952950000000     0.793010000000    -0.163459   
N62      N      0.182650000000     0.978700000000     0.873960000000    -0.160009   
N63      N      0.450740000000     0.950560000000     0.646460000000    -0.167334   
N64      N      0.493470000000     0.994650000000     0.575610000000    -0.160275   
N65      N      0.699860000000     0.200070000000     0.053060000000    -0.164843   
N66      N      0.710720000000     0.214150000000     0.136990000000    -0.161426   
N67      N      0.702450000000     0.206470000000     0.394740000000    -0.164571   
N68      N      0.722220000000     0.225980000000     0.312550000000    -0.161139   
N69      N      0.706010000000     0.460020000000     0.043010000000    -0.163944   
N70      N      0.722930000000     0.440010000000     0.125920000000    -0.161355   
N71      N      0.941380000000     0.214520000000     0.134800000000    -0.164659   
N72      N      0.963490000000     0.199380000000     0.051990000000    -0.160564   
N73      N      0.940260000000     0.443120000000     0.305830000000    -0.163707   
N74      N      0.969710000000     0.471370000000     0.385270000000    -0.160745   
N75      N      0.967040000000     0.198250000000     0.386890000000    -0.164514   
N76      N      0.939870000000     0.219150000000     0.305930000000    -0.160907   
N77      N      0.705220000000     0.452950000000     0.293010000000    -0.16417    
N78      N      0.682650000000     0.478700000000     0.373960000000    -0.160584   
N79      N      0.950740000000     0.450560000000     0.146460000000    -0.167959   
N80      N      0.993470000000     0.494650000000     0.075610000000    -0.160671   
N81      N      0.699860000000     0.200070000000     0.553060000000    -0.165165   
N82      N      0.710720000000     0.214150000000     0.636990000000    -0.161408   
N83      N      0.702450000000     0.206470000000     0.894740000000    -0.164738   
N84      N      0.722220000000     0.225980000000     0.812550000000    -0.161116   
N85      N      0.706010000000     0.460020000000     0.543010000000    -0.164296   
N86      N      0.722930000000     0.440010000000     0.625920000000    -0.161336   
N87      N      0.941380000000     0.214520000000     0.634800000000    -0.16466    
N88      N      0.963490000000     0.199380000000     0.551980000000    -0.160907   
N89      N      0.940260000000     0.443120000000     0.805830000000    -0.1637     
N90      N      0.969710000000     0.471370000000     0.885270000000    -0.160831   
N91      N      0.967040000000     0.198250000000     0.886890000000    -0.164624   
N92      N      0.939870000000     0.219150000000     0.805930000000    -0.16092    
N93      N      0.705220000000     0.452950000000     0.793010000000    -0.164159   
N94      N      0.682650000000     0.478700000000     0.873960000000    -0.160638   
N95      N      0.950740000000     0.450560000000     0.646460000000    -0.167964   
N96      N      0.993470000000     0.494650000000     0.575610000000    -0.160863   
N97      N      0.699860000000     0.700070000000     0.053060000000    -0.164861   
N98      N      0.710720000000     0.714150000000     0.136990000000    -0.161412   
N99      N      0.702450000000     0.706470000000     0.394740000000    -0.164566   
N100     N      0.722220000000     0.725980000000     0.312550000000    -0.161149   
N101     N      0.706010000000     0.960020000000     0.043010000000    -0.164077   
N102     N      0.722930000000     0.940010000000     0.125920000000    -0.161393   
N103     N      0.941380000000     0.714510000000     0.134800000000    -0.164646   
N104     N      0.963490000000     0.699380000000     0.051990000000    -0.16056    
N105     N      0.940260000000     0.943120000000     0.305830000000    -0.16384    
N106     N      0.969710000000     0.971370000000     0.385270000000    -0.160908   
N107     N      0.967040000000     0.698250000000     0.386890000000    -0.164519   
N108     N      0.939870000000     0.719150000000     0.305930000000    -0.160924   
N109     N      0.705220000000     0.952950000000     0.293010000000    -0.163455   
N110     N      0.682650000000     0.978700000000     0.373960000000    -0.159974   
N111     N      0.950740000000     0.950560000000     0.146460000000    -0.167524   
N112     N      0.993470000000     0.994650000000     0.075610000000    -0.15909    
N113     N      0.699860000000     0.700070000000     0.553060000000    -0.165183   
N114     N      0.710720000000     0.714150000000     0.636990000000    -0.161394   
N115     N      0.702450000000     0.706470000000     0.894740000000    -0.164733   
N116     N      0.722220000000     0.725980000000     0.812550000000    -0.161126   
N117     N      0.706010000000     0.960020000000     0.543010000000    -0.16443    
N118     N      0.722930000000     0.940010000000     0.625920000000    -0.161374   
N119     N      0.941380000000     0.714510000000     0.634800000000    -0.164646   
N120     N      0.963490000000     0.699380000000     0.551980000000    -0.160903   
N121     N      0.940260000000     0.943120000000     0.805830000000    -0.163833   
N122     N      0.969710000000     0.971370000000     0.885270000000    -0.160995   
N123     N      0.967040000000     0.698250000000     0.886890000000    -0.164629   
N124     N      0.939870000000     0.719150000000     0.805930000000    -0.160937   
N125     N      0.705220000000     0.952950000000     0.793010000000    -0.163444   
N126     N      0.682650000000     0.978700000000     0.873960000000    -0.160028   
N127     N      0.950740000000     0.950560000000     0.646460000000    -0.167529   
N128     N      0.993470000000     0.994650000000     0.575610000000    -0.15928    
O1       O      0.485280000000     0.544310000000     0.019380000000    -0.363729   
O2       O      0.190130000000     0.131570000000     0.010860000000    -0.356937   
O3       O      0.134880000000     0.472270000000     0.004750000000    -0.355035   
O4       O      0.533130000000     0.191330000000     0.011410000000    -0.356856   
O5       O      0.191780000000     0.533270000000     0.006840000000    -0.359221   
O6       O      0.474040000000     0.132040000000     0.009430000000    -0.355114   
O7       O      0.130470000000     0.189890000000     0.012320000000    -0.358628   
O8       O      0.551060000000     0.492990000000     0.024360000000    -0.367103   
O9       O      0.477530000000     0.129110000000     0.428070000000    -0.368669   
O10      O      0.181450000000     0.541600000000     0.422040000000    -0.369324   
O11      O      0.536790000000     0.477970000000     0.428870000000    -0.367623   
O12      O      0.131320000000     0.193510000000     0.432880000000    -0.366496   
O13      O      0.189090000000     0.133280000000     0.430780000000    -0.3668     
O14      O      0.479940000000     0.539460000000     0.427100000000    -0.376412   
O15      O      0.536290000000     0.188270000000     0.428420000000    -0.371131   
O16      O      0.120950000000     0.483670000000     0.421980000000    -0.370363   
O17      O      0.583250000000     0.584290000000     0.987270000000    -0.58717    
O18      O      0.381230000000     0.441610000000     0.186720000000    -0.36122    
O19      O      0.278460000000     0.222100000000     0.179560000000    -0.360925   
O20      O      0.433180000000     0.281950000000     0.178300000000    -0.362018   
O21      O      0.225120000000     0.375670000000     0.172640000000    -0.359785   
O22      O      0.372730000000     0.224670000000     0.176750000000    -0.362027   
O23      O      0.285360000000     0.433790000000     0.173390000000    -0.364521   
O24      O      0.220090000000     0.282200000000     0.178840000000    -0.365525   
O25      O      0.434770000000     0.377610000000     0.180420000000    -0.369164   
O26      O      0.277270000000     0.439560000000     0.256190000000    -0.36881    
O27      O      0.372370000000     0.225510000000     0.262650000000    -0.363756   
O28      O      0.431270000000     0.374980000000     0.262990000000    -0.365122   
O29      O      0.225830000000     0.289250000000     0.265000000000    -0.371091   
O30      O      0.285280000000     0.230220000000     0.265750000000    -0.373696   
O31      O      0.371450000000     0.433020000000     0.263990000000    -0.367982   
O32      O      0.219210000000     0.379670000000     0.256840000000    -0.367278   
O33      O      0.430750000000     0.285540000000     0.262540000000    -0.373641   
O34      O      0.327140000000     0.330380000000     0.202130000000    -0.59079    
O35      O      0.485280000000     0.544310000000     0.519370000000    -0.365973   
O36      O      0.190130000000     0.131570000000     0.510860000000    -0.359297   
O37      O      0.134880000000     0.472270000000     0.504750000000    -0.357423   
O38      O      0.533130000000     0.191330000000     0.511410000000    -0.359199   
O39      O      0.191780000000     0.533270000000     0.506840000000    -0.361522   
O40      O      0.474040000000     0.132040000000     0.509430000000    -0.357483   
O41      O      0.130470000000     0.189890000000     0.512320000000    -0.36095    
O42      O      0.551060000000     0.492990000000     0.524360000000    -0.369245   
O43      O      0.477530000000     0.129110000000     0.928070000000    -0.368693   
O44      O      0.181450000000     0.541600000000     0.922040000000    -0.369269   
O45      O      0.536790000000     0.477970000000     0.928870000000    -0.367614   
O46      O      0.131320000000     0.193510000000     0.932880000000    -0.366623   
O47      O      0.189090000000     0.133280000000     0.930780000000    -0.366819   
O48      O      0.479940000000     0.539460000000     0.927100000000    -0.376317   
O49      O      0.536290000000     0.188270000000     0.928420000000    -0.371087   
O50      O      0.120950000000     0.483670000000     0.921980000000    -0.37028    
O51      O      0.583250000000     0.584290000000     0.487270000000    -0.587236   
O52      O      0.381230000000     0.441610000000     0.686720000000    -0.361209   
O53      O      0.278460000000     0.222100000000     0.679560000000    -0.360914   
O54      O      0.433180000000     0.281950000000     0.678290000000    -0.362016   
O55      O      0.225120000000     0.375670000000     0.672640000000    -0.359775   
O56      O      0.372730000000     0.224670000000     0.676750000000    -0.362036   
O57      O      0.285360000000     0.433790000000     0.673390000000    -0.364517   
O58      O      0.220090000000     0.282200000000     0.678840000000    -0.365511   
O59      O      0.434770000000     0.377610000000     0.680420000000    -0.36916    
O60      O      0.277270000000     0.439560000000     0.756190000000    -0.368804   
O61      O      0.372370000000     0.225510000000     0.762650000000    -0.363698   
O62      O      0.431270000000     0.374980000000     0.762990000000    -0.365111   
O63      O      0.225830000000     0.289250000000     0.765000000000    -0.371086   
O64      O      0.285280000000     0.230220000000     0.765750000000    -0.373687   
O65      O      0.371450000000     0.433020000000     0.763990000000    -0.367983   
O66      O      0.219210000000     0.379670000000     0.756840000000    -0.367273   
O67      O      0.430750000000     0.285540000000     0.762540000000    -0.373587   
O68      O      0.327140000000     0.330380000000     0.702130000000    -0.590808   
O69      O      0.485280000000     0.044320000000     0.019380000000    -0.363219   
O70      O      0.190130000000     0.631570000000     0.010860000000    -0.356962   
O71      O      0.134880000000     0.972270000000     0.004750000000    -0.354652   
O72      O      0.533130000000     0.691330000000     0.011410000000    -0.356858   
O73      O      0.191780000000     0.033280000000     0.006840000000    -0.360161   
O74      O      0.474040000000     0.632040000000     0.009430000000    -0.355073   
O75      O      0.130470000000     0.689880000000     0.012320000000    -0.3587     
O76      O      0.551060000000     0.992990000000     0.024360000000    -0.365067   
O77      O      0.477530000000     0.629110000000     0.428070000000    -0.368675   
O78      O      0.181450000000     0.041600000000     0.422040000000    -0.36891    
O79      O      0.536790000000     0.977970000000     0.428870000000    -0.36725    
O80      O      0.131320000000     0.693510000000     0.432880000000    -0.366502   
O81      O      0.189090000000     0.633280000000     0.430780000000    -0.366769   
O82      O      0.479940000000     0.039460000000     0.427100000000    -0.377454   
O83      O      0.536290000000     0.688270000000     0.428420000000    -0.371143   
O84      O      0.120950000000     0.983660000000     0.421980000000    -0.368398   
O85      O      0.583250000000     0.084290000000     0.987270000000    -0.587024   
O86      O      0.381230000000     0.941610000000     0.186720000000    -0.360877   
O87      O      0.278460000000     0.722100000000     0.179560000000    -0.360918   
O88      O      0.433180000000     0.781950000000     0.178300000000    -0.361936   
O89      O      0.225120000000     0.875670000000     0.172640000000    -0.359742   
O90      O      0.372730000000     0.724670000000     0.176750000000    -0.362028   
O91      O      0.285360000000     0.933790000000     0.173390000000    -0.364361   
O92      O      0.220090000000     0.782200000000     0.178840000000    -0.365558   
O93      O      0.434770000000     0.877610000000     0.180420000000    -0.369148   
O94      O      0.277270000000     0.939570000000     0.256190000000    -0.368364   
O95      O      0.372370000000     0.725510000000     0.262650000000    -0.363782   
O96      O      0.431270000000     0.874980000000     0.262990000000    -0.365131   
O97      O      0.225830000000     0.789250000000     0.265000000000    -0.371137   
O98      O      0.285280000000     0.730230000000     0.265750000000    -0.373762   
O99      O      0.371450000000     0.933020000000     0.263990000000    -0.367712   
O100     O      0.219210000000     0.879670000000     0.256840000000    -0.367201   
O101     O      0.430750000000     0.785530000000     0.262540000000    -0.373701   
O102     O      0.327140000000     0.830380000000     0.202130000000    -0.590806   
O103     O      0.485280000000     0.044320000000     0.519370000000    -0.365462   
O104     O      0.190130000000     0.631570000000     0.510860000000    -0.359322   
O105     O      0.134880000000     0.972270000000     0.504750000000    -0.357038   
O106     O      0.533130000000     0.691330000000     0.511410000000    -0.3592     
O107     O      0.191780000000     0.033280000000     0.506840000000    -0.362464   
O108     O      0.474040000000     0.632040000000     0.509430000000    -0.357443   
O109     O      0.130470000000     0.689880000000     0.512320000000    -0.361022   
O110     O      0.551060000000     0.992990000000     0.524360000000    -0.367205   
O111     O      0.477530000000     0.629110000000     0.928070000000    -0.368698   
O112     O      0.181450000000     0.041600000000     0.922040000000    -0.368854   
O113     O      0.536790000000     0.977970000000     0.928870000000    -0.367242   
O114     O      0.131320000000     0.693510000000     0.932880000000    -0.366629   
O115     O      0.189090000000     0.633280000000     0.930780000000    -0.366788   
O116     O      0.479940000000     0.039460000000     0.927100000000    -0.377359   
O117     O      0.536290000000     0.688270000000     0.928420000000    -0.371099   
O118     O      0.120950000000     0.983660000000     0.921980000000    -0.368315   
O119     O      0.583250000000     0.084290000000     0.487270000000    -0.587089   
O120     O      0.381230000000     0.941610000000     0.686720000000    -0.360865   
O121     O      0.278460000000     0.722100000000     0.679560000000    -0.360907   
O122     O      0.433180000000     0.781950000000     0.678290000000    -0.361934   
O123     O      0.225120000000     0.875670000000     0.672640000000    -0.359731   
O124     O      0.372730000000     0.724670000000     0.676750000000    -0.362037   
O125     O      0.285360000000     0.933790000000     0.673390000000    -0.364357   
O126     O      0.220090000000     0.782200000000     0.678840000000    -0.365543   
O127     O      0.434770000000     0.877610000000     0.680420000000    -0.369143   
O128     O      0.277270000000     0.939570000000     0.756190000000    -0.368358   
O129     O      0.372370000000     0.725510000000     0.762650000000    -0.363724   
O130     O      0.431270000000     0.874980000000     0.762990000000    -0.365121   
O131     O      0.225830000000     0.789250000000     0.765000000000    -0.371131   
O132     O      0.285280000000     0.730230000000     0.765750000000    -0.373754   
O133     O      0.371450000000     0.933020000000     0.763990000000    -0.367713   
O134     O      0.219210000000     0.879670000000     0.756840000000    -0.367196   
O135     O      0.430750000000     0.785530000000     0.762540000000    -0.373647   
O136     O      0.327140000000     0.830380000000     0.702130000000    -0.590823   
O137     O      0.985280000000     0.544310000000     0.019380000000    -0.362514   
O138     O      0.690130000000     0.131570000000     0.010860000000    -0.356945   
O139     O      0.634880000000     0.472270000000     0.004750000000    -0.355008   
O140     O      0.033130000000     0.191330000000     0.011410000000    -0.357536   
O141     O      0.691780000000     0.533270000000     0.006840000000    -0.359228   
O142     O      0.974040000000     0.132040000000     0.009430000000    -0.354916   
O143     O      0.630470000000     0.189890000000     0.012320000000    -0.358615   
O144     O      0.051060000000     0.492990000000     0.024360000000    -0.366772   
O145     O      0.977530000000     0.129110000000     0.428070000000    -0.368422   
O146     O      0.681440000000     0.541600000000     0.422040000000    -0.369401   
O147     O      0.036790000000     0.477970000000     0.428870000000    -0.368304   
O148     O      0.631320000000     0.193510000000     0.432880000000    -0.366497   
O149     O      0.689090000000     0.133280000000     0.430780000000    -0.366802   
O150     O      0.979950000000     0.539460000000     0.427100000000    -0.376212   
O151     O      0.036290000000     0.188270000000     0.428420000000    -0.371784   
O152     O      0.620950000000     0.483670000000     0.421980000000    -0.370381   
O153     O      0.083250000000     0.584290000000     0.987270000000    -0.5871     
O154     O      0.881240000000     0.441610000000     0.186720000000    -0.361216   
O155     O      0.778460000000     0.222100000000     0.179560000000    -0.360922   
O156     O      0.933180000000     0.281950000000     0.178300000000    -0.361872   
O157     O      0.725120000000     0.375670000000     0.172640000000    -0.359773   
O158     O      0.872730000000     0.224670000000     0.176750000000    -0.362037   
O159     O      0.785360000000     0.433790000000     0.173390000000    -0.364522   
O160     O      0.720090000000     0.282200000000     0.178840000000    -0.36551    
O161     O      0.934770000000     0.377610000000     0.180420000000    -0.369087   
O162     O      0.777270000000     0.439560000000     0.256190000000    -0.368807   
O163     O      0.872370000000     0.225510000000     0.262650000000    -0.363754   
O164     O      0.931270000000     0.374980000000     0.262990000000    -0.365055   
O165     O      0.725830000000     0.289250000000     0.265000000000    -0.37108    
O166     O      0.785280000000     0.230220000000     0.265750000000    -0.373695   
O167     O      0.871450000000     0.433020000000     0.263990000000    -0.367984   
O168     O      0.719210000000     0.379670000000     0.256840000000    -0.367272   
O169     O      0.930750000000     0.285540000000     0.262540000000    -0.373582   
O170     O      0.827140000000     0.330380000000     0.202130000000    -0.590801   
O171     O      0.985280000000     0.544310000000     0.519370000000    -0.364756   
O172     O      0.690130000000     0.131570000000     0.510860000000    -0.359304   
O173     O      0.634880000000     0.472270000000     0.504750000000    -0.357396   
O174     O      0.033130000000     0.191330000000     0.511410000000    -0.359879   
O175     O      0.691780000000     0.533270000000     0.506840000000    -0.36153    
O176     O      0.974040000000     0.132040000000     0.509430000000    -0.357285   
O177     O      0.630470000000     0.189890000000     0.512320000000    -0.360937   
O178     O      0.051060000000     0.492990000000     0.524360000000    -0.368914   
O179     O      0.977530000000     0.129110000000     0.928070000000    -0.368446   
O180     O      0.681440000000     0.541600000000     0.922040000000    -0.369346   
O181     O      0.036790000000     0.477970000000     0.928870000000    -0.368296   
O182     O      0.631320000000     0.193510000000     0.932880000000    -0.366624   
O183     O      0.689090000000     0.133280000000     0.930780000000    -0.366821   
O184     O      0.979950000000     0.539460000000     0.927100000000    -0.376117   
O185     O      0.036290000000     0.188270000000     0.928420000000    -0.37174    
O186     O      0.620950000000     0.483670000000     0.921980000000    -0.370297   
O187     O      0.083250000000     0.584290000000     0.487270000000    -0.587165   
O188     O      0.881240000000     0.441610000000     0.686720000000    -0.361205   
O189     O      0.778460000000     0.222100000000     0.679560000000    -0.360912   
O190     O      0.933180000000     0.281950000000     0.678290000000    -0.361869   
O191     O      0.725120000000     0.375670000000     0.672640000000    -0.359763   
O192     O      0.872730000000     0.224670000000     0.676750000000    -0.362046   
O193     O      0.785360000000     0.433790000000     0.673390000000    -0.364518   
O194     O      0.720090000000     0.282200000000     0.678840000000    -0.365496   
O195     O      0.934770000000     0.377610000000     0.680420000000    -0.369083   
O196     O      0.777270000000     0.439560000000     0.756190000000    -0.368801   
O197     O      0.872370000000     0.225510000000     0.762650000000    -0.363696   
O198     O      0.931270000000     0.374980000000     0.762990000000    -0.365045   
O199     O      0.725830000000     0.289250000000     0.765000000000    -0.371075   
O200     O      0.785280000000     0.230220000000     0.765750000000    -0.373686   
O201     O      0.871450000000     0.433020000000     0.763990000000    -0.367985   
O202     O      0.719210000000     0.379670000000     0.756840000000    -0.367268   
O203     O      0.930750000000     0.285540000000     0.762540000000    -0.373528   
O204     O      0.827140000000     0.330380000000     0.702130000000    -0.590819   
O205     O      0.985280000000     0.044320000000     0.019380000000    -0.362004   
O206     O      0.690130000000     0.631570000000     0.010860000000    -0.35697    
O207     O      0.634880000000     0.972270000000     0.004750000000    -0.354625   
O208     O      0.033130000000     0.691330000000     0.011410000000    -0.357538   
O209     O      0.691780000000     0.033280000000     0.006840000000    -0.360168   
O210     O      0.974040000000     0.632040000000     0.009430000000    -0.354876   
O211     O      0.630470000000     0.689880000000     0.012320000000    -0.358687   
O212     O      0.051060000000     0.992990000000     0.024360000000    -0.364736   
O213     O      0.977530000000     0.629110000000     0.428070000000    -0.368428   
O214     O      0.681440000000     0.041600000000     0.422040000000    -0.368987   
O215     O      0.036790000000     0.977970000000     0.428870000000    -0.367931   
O216     O      0.631320000000     0.693510000000     0.432880000000    -0.366503   
O217     O      0.689090000000     0.633280000000     0.430780000000    -0.366772   
O218     O      0.979950000000     0.039460000000     0.427100000000    -0.377253   
O219     O      0.036290000000     0.688270000000     0.428420000000    -0.371795   
O220     O      0.620950000000     0.983660000000     0.421980000000    -0.368416   
O221     O      0.083250000000     0.084290000000     0.987270000000    -0.586953   
O222     O      0.881240000000     0.941610000000     0.186720000000    -0.360873   
O223     O      0.778460000000     0.722100000000     0.179560000000    -0.360915   
O224     O      0.933180000000     0.781950000000     0.178300000000    -0.361789   
O225     O      0.725120000000     0.875670000000     0.172640000000    -0.35973    
O226     O      0.872730000000     0.724670000000     0.176750000000    -0.362038   
O227     O      0.785360000000     0.933790000000     0.173390000000    -0.364362   
O228     O      0.720090000000     0.782200000000     0.178840000000    -0.365542   
O229     O      0.934770000000     0.877610000000     0.180420000000    -0.36907    
O230     O      0.777270000000     0.939570000000     0.256190000000    -0.368361   
O231     O      0.872370000000     0.725510000000     0.262650000000    -0.36378    
O232     O      0.931270000000     0.874980000000     0.262990000000    -0.365065   
O233     O      0.725830000000     0.789250000000     0.265000000000    -0.371126   
O234     O      0.785280000000     0.730230000000     0.265750000000    -0.373761   
O235     O      0.871450000000     0.933020000000     0.263990000000    -0.367714   
O236     O      0.719210000000     0.879670000000     0.256840000000    -0.367195   
O237     O      0.930750000000     0.785530000000     0.262540000000    -0.373643   
O238     O      0.827140000000     0.830380000000     0.202130000000    -0.590817   
O239     O      0.985280000000     0.044320000000     0.519370000000    -0.364244   
O240     O      0.690130000000     0.631570000000     0.510860000000    -0.359329   
O241     O      0.634880000000     0.972270000000     0.504750000000    -0.357012   
O242     O      0.033130000000     0.691330000000     0.511410000000    -0.35988    
O243     O      0.691780000000     0.033280000000     0.506840000000    -0.362471   
O244     O      0.974040000000     0.632040000000     0.509430000000    -0.357244   
O245     O      0.630470000000     0.689880000000     0.512320000000    -0.361009   
O246     O      0.051060000000     0.992990000000     0.524360000000    -0.366873   
O247     O      0.977530000000     0.629110000000     0.928070000000    -0.368452   
O248     O      0.681440000000     0.041600000000     0.922040000000    -0.368931   
O249     O      0.036790000000     0.977970000000     0.928870000000    -0.367922   
O250     O      0.631320000000     0.693510000000     0.932880000000    -0.36663    
O251     O      0.689090000000     0.633280000000     0.930780000000    -0.36679    
O252     O      0.979950000000     0.039460000000     0.927100000000    -0.377158   
O253     O      0.036290000000     0.688270000000     0.928420000000    -0.371751   
O254     O      0.620950000000     0.983660000000     0.921980000000    -0.368333   
O255     O      0.083250000000     0.084290000000     0.487270000000    -0.587019   
O256     O      0.881240000000     0.941610000000     0.686720000000    -0.360862   
O257     O      0.778460000000     0.722100000000     0.679560000000    -0.360905   
O258     O      0.933180000000     0.781950000000     0.678290000000    -0.361787   
O259     O      0.725120000000     0.875670000000     0.672640000000    -0.35972    
O260     O      0.872730000000     0.724670000000     0.676750000000    -0.362047   
O261     O      0.785360000000     0.933790000000     0.673390000000    -0.364359   
O262     O      0.720090000000     0.782200000000     0.678840000000    -0.365528   
O263     O      0.934770000000     0.877610000000     0.680420000000    -0.369066   
O264     O      0.777270000000     0.939570000000     0.756190000000    -0.368355   
O265     O      0.872370000000     0.725510000000     0.762650000000    -0.363722   
O266     O      0.931270000000     0.874980000000     0.762990000000    -0.365055   
O267     O      0.725830000000     0.789250000000     0.765000000000    -0.371121   
O268     O      0.785280000000     0.730230000000     0.765750000000    -0.373753   
O269     O      0.871450000000     0.933020000000     0.763990000000    -0.367715   
O270     O      0.719210000000     0.879670000000     0.756840000000    -0.36719    
O271     O      0.930750000000     0.785530000000     0.762540000000    -0.373589   
O272     O      0.827140000000     0.830380000000     0.702130000000    -0.590834   
S1       S      0.142950000000     0.281780000000     0.047750000000     0.00890441 
S2       S      0.283020000000     0.148460000000     0.400340000000     0.00910632 
S3       S      0.285090000000     0.520200000000     0.040010000000     0.0120974  
S4       S      0.377450000000     0.137720000000     0.133390000000     0.00775253 
S5       S      0.380820000000     0.523500000000     0.301530000000     0.0102492  
S6       S      0.529040000000     0.276670000000     0.387160000000     0.00616167 
S7       S      0.125880000000     0.393000000000     0.289090000000     0.00790585 
S8       S      0.471960000000     0.540930000000     0.164510000000    -0.00195091 
S9       S      0.142950000000     0.281780000000     0.547750000000     0.00771092 
S10      S      0.283020000000     0.148460000000     0.900340000000     0.00784105 
S11      S      0.285090000000     0.520200000000     0.540010000000     0.0107184  
S12      S      0.377450000000     0.137720000000     0.633390000000     0.00773931 
S13      S      0.380820000000     0.523500000000     0.801530000000     0.0102567  
S14      S      0.529040000000     0.276670000000     0.887160000000     0.00529148 
S15      S      0.125880000000     0.393000000000     0.789090000000     0.00795281 
S16      S      0.471960000000     0.540930000000     0.664510000000    -0.00187624 
S17      S      0.142950000000     0.781780000000     0.047750000000     0.00891088 
S18      S      0.283020000000     0.648460000000     0.400340000000     0.0091639  
S19      S      0.285090000000     0.020200000000     0.040010000000     0.0105147  
S20      S      0.377450000000     0.637720000000     0.133390000000     0.00787075 
S21      S      0.380820000000     0.023500000000     0.301530000000     0.00840881 
S22      S      0.529040000000     0.776670000000     0.387160000000     0.00617766 
S23      S      0.125880000000     0.893010000000     0.289090000000     0.00803966 
S24      S      0.471960000000     0.040930000000     0.164510000000    -0.00263217 
S25      S      0.142950000000     0.781780000000     0.547750000000     0.0077178  
S26      S      0.283020000000     0.648460000000     0.900340000000     0.00789863 
S27      S      0.285090000000     0.020200000000     0.540010000000     0.00913372 
S28      S      0.377450000000     0.637720000000     0.633390000000     0.00785766 
S29      S      0.380820000000     0.023500000000     0.801530000000     0.00841567 
S30      S      0.529040000000     0.776670000000     0.887160000000     0.00530768 
S31      S      0.125880000000     0.893010000000     0.789090000000     0.00808677 
S32      S      0.471960000000     0.040930000000     0.664510000000    -0.00255805 
S33      S      0.642950000000     0.281780000000     0.047750000000     0.00896469 
S34      S      0.783020000000     0.148460000000     0.400340000000     0.00910857 
S35      S      0.785090000000     0.520200000000     0.040010000000     0.0121055  
S36      S      0.877450000000     0.137720000000     0.133390000000     0.00777868 
S37      S      0.880820000000     0.523500000000     0.301530000000     0.0102916  
S38      S      0.029040000000     0.276670000000     0.387160000000     0.00519013 
S39      S      0.625880000000     0.393000000000     0.289090000000     0.00812647 
S40      S      0.971950000000     0.540930000000     0.164510000000    -0.00152962 
S41      S      0.642950000000     0.281780000000     0.547750000000     0.0077713  
S42      S      0.783020000000     0.148460000000     0.900340000000     0.00784348 
S43      S      0.785090000000     0.520200000000     0.540010000000     0.0107269  
S44      S      0.877450000000     0.137720000000     0.633390000000     0.0077655  
S45      S      0.880820000000     0.523500000000     0.801530000000     0.0102992  
S46      S      0.029040000000     0.276670000000     0.887160000000     0.00432017 
S47      S      0.625880000000     0.393000000000     0.789090000000     0.00817351 
S48      S      0.971950000000     0.540930000000     0.664510000000    -0.0014543  
S49      S      0.642950000000     0.781780000000     0.047750000000     0.00897111 
S50      S      0.783020000000     0.648460000000     0.400340000000     0.00916612 
S51      S      0.785090000000     0.020200000000     0.040010000000     0.0105235  
S52      S      0.877450000000     0.637720000000     0.133390000000     0.00789682 
S53      S      0.880820000000     0.023500000000     0.301530000000     0.00845249 
S54      S      0.029040000000     0.776670000000     0.387160000000     0.00520672 
S55      S      0.625880000000     0.893010000000     0.289090000000     0.00826014 
S56      S      0.971950000000     0.040930000000     0.164510000000    -0.00221036 
S57      S      0.642950000000     0.781780000000     0.547750000000     0.00777813 
S58      S      0.783020000000     0.648460000000     0.900340000000     0.00790103 
S59      S      0.785090000000     0.020200000000     0.540010000000     0.00914291 
S60      S      0.877450000000     0.637720000000     0.633390000000     0.00788375 
S61      S      0.880820000000     0.023500000000     0.801530000000     0.0084594  
S62      S      0.029040000000     0.776670000000     0.887160000000     0.00433698 
S63      S      0.625880000000     0.893010000000     0.789090000000     0.00830732 
S64      S      0.971950000000     0.040930000000     0.664510000000    -0.00213559 


