data_structure

_audit_creation_method RASPA-1.0
_audit_creation_date 2023-5-19
_audit_author_name 'Poobodin Mano'

_cell_length_a    31.0283
_cell_length_b    30.6001
_cell_length_c    27.4173
_cell_angle_alpha 90
_cell_angle_beta  90
_cell_angle_gamma 90
_cell_volume      26031.9

_symmetry_cell_setting          triclinic
_symmetry_space_group_name_Hall 'P 1'
_symmetry_space_group_name_H-M  'P 1'
_symmetry_Int_Tables_number     1

_symmetry_equiv_pos_as_xyz 'x,y,z'

loop_
_atom_site_label
_atom_site_type_symbol
_atom_site_fract_x
_atom_site_fract_y
_atom_site_fract_z
_atom_site_charge
Br1      Br     0.196820000000     0.079200000000     0.259680000000    -0.186968   
Br2      Br     0.074190000000     0.184250000000     0.345490000000    -0.206958   
Br3      Br     0.073850000000     0.305570000000     0.255430000000    -0.20251    
Br4      Br     0.264410000000     0.149690000000     0.157370000000    -0.212575   
Br5      Br     0.465460000000     0.332130000000     0.490750000000    -0.167947   
Br6      Br     0.329060000000     0.072240000000     0.334200000000    -0.196871   
Br7      Br     0.041350000000     0.327960000000     0.500350000000    -0.164043   
Br8      Br     0.340130000000     0.499840000000     0.180160000000    -0.201505   
Br9      Br     0.196820000000     0.079200000000     0.759680000000    -0.186974   
Br10     Br     0.074190000000     0.184250000000     0.845490000000    -0.206991   
Br11     Br     0.073850000000     0.305570000000     0.755430000000    -0.202528   
Br12     Br     0.264410000000     0.149690000000     0.657370000000    -0.212666   
Br13     Br     0.465460000000     0.332130000000     0.990740000000    -0.168624   
Br14     Br     0.329060000000     0.072240000000     0.834200000000    -0.19689    
Br15     Br     0.041350000000     0.327960000000     0.000350000000    -0.163103   
Br16     Br     0.340130000000     0.499840000000     0.680160000000    -0.201545   
Br17     Br     0.196820000000     0.579200000000     0.259680000000    -0.18693    
Br18     Br     0.074190000000     0.684250000000     0.345490000000    -0.206954   
Br19     Br     0.073850000000     0.805570000000     0.255430000000    -0.202507   
Br20     Br     0.264410000000     0.649690000000     0.157370000000    -0.212566   
Br21     Br     0.465460000000     0.832130000000     0.490750000000    -0.167947   
Br22     Br     0.329060000000     0.572240000000     0.334200000000    -0.196829   
Br23     Br     0.041350000000     0.827960000000     0.500350000000    -0.164043   
Br24     Br     0.340130000000     0.999840000000     0.180160000000    -0.201432   
Br25     Br     0.196820000000     0.579200000000     0.759680000000    -0.186936   
Br26     Br     0.074190000000     0.684250000000     0.845490000000    -0.206986   
Br27     Br     0.073850000000     0.805570000000     0.755430000000    -0.202525   
Br28     Br     0.264410000000     0.649690000000     0.657370000000    -0.212656   
Br29     Br     0.465460000000     0.832130000000     0.990740000000    -0.168623   
Br30     Br     0.329060000000     0.572240000000     0.834200000000    -0.196848   
Br31     Br     0.041350000000     0.827960000000     0.000350000000    -0.163103   
Br32     Br     0.340130000000     0.999840000000     0.680160000000    -0.201473   
Br33     Br     0.696820000000     0.079200000000     0.259680000000    -0.186971   
Br34     Br     0.574190000000     0.184250000000     0.345490000000    -0.206936   
Br35     Br     0.573850000000     0.305570000000     0.255430000000    -0.202479   
Br36     Br     0.764410000000     0.149690000000     0.157370000000    -0.21258    
Br37     Br     0.965460000000     0.332130000000     0.490750000000    -0.167876   
Br38     Br     0.829060000000     0.072240000000     0.334200000000    -0.196867   
Br39     Br     0.541350000000     0.327960000000     0.500350000000    -0.163979   
Br40     Br     0.840130000000     0.499840000000     0.180160000000    -0.201512   
Br41     Br     0.696820000000     0.079200000000     0.759680000000    -0.186977   
Br42     Br     0.574190000000     0.184250000000     0.845490000000    -0.206968   
Br43     Br     0.573850000000     0.305570000000     0.755430000000    -0.202497   
Br44     Br     0.764410000000     0.149690000000     0.657370000000    -0.212671   
Br45     Br     0.965460000000     0.332130000000     0.990740000000    -0.168553   
Br46     Br     0.829060000000     0.072240000000     0.834200000000    -0.196887   
Br47     Br     0.541350000000     0.327960000000     0.000350000000    -0.163039   
Br48     Br     0.840130000000     0.499840000000     0.680160000000    -0.201552   
Br49     Br     0.696820000000     0.579200000000     0.259680000000    -0.186933   
Br50     Br     0.574190000000     0.684250000000     0.345490000000    -0.206931   
Br51     Br     0.573850000000     0.805570000000     0.255430000000    -0.202475   
Br52     Br     0.764410000000     0.649690000000     0.157370000000    -0.212571   
Br53     Br     0.965460000000     0.832130000000     0.490750000000    -0.167876   
Br54     Br     0.829060000000     0.572240000000     0.334200000000    -0.196825   
Br55     Br     0.541350000000     0.827960000000     0.500350000000    -0.163979   
Br56     Br     0.840130000000     0.999840000000     0.180160000000    -0.20144    
Br57     Br     0.696820000000     0.579200000000     0.759680000000    -0.186939   
Br58     Br     0.574190000000     0.684250000000     0.845490000000    -0.206964   
Br59     Br     0.573850000000     0.805570000000     0.755430000000    -0.202494   
Br60     Br     0.764410000000     0.649690000000     0.657370000000    -0.212661   
Br61     Br     0.965460000000     0.832130000000     0.990740000000    -0.168553   
Br62     Br     0.829060000000     0.572240000000     0.834200000000    -0.196845   
Br63     Br     0.541350000000     0.827960000000     0.000350000000    -0.163039   
Br64     Br     0.840130000000     0.999840000000     0.680160000000    -0.20148    
C1       C      0.421910000000     0.426940000000     0.516720000000     0.403109   
C2       C      0.077780000000     0.074400000000     0.490990000000     0.39698    
C3       C      0.437740000000     0.078510000000     0.482900000000     0.393787   
C4       C      0.084590000000     0.423050000000     0.525870000000     0.402141   
C5       C      0.071960000000     0.444870000000     0.149940000000     0.387666   
C6       C      0.421530000000     0.100460000000     0.108600000000     0.392717   
C7       C      0.428010000000     0.447970000000     0.145450000000     0.399115   
C8       C      0.068650000000     0.084960000000     0.140160000000     0.388982   
C9       C      0.326930000000     0.342700000000     0.256210000000     0.390284   
C10      C      0.175770000000     0.182700000000     0.254080000000     0.403918   
C11      C      0.324670000000     0.195760000000     0.237920000000     0.397334   
C12      C      0.173540000000     0.339350000000     0.260600000000     0.401262   
C13      C      0.174410000000     0.337480000000     0.384020000000     0.393465   
C14      C      0.340350000000     0.175040000000     0.358540000000     0.403306   
C15      C      0.321480000000     0.327220000000     0.397760000000     0.397673   
C16      C      0.174950000000     0.174520000000     0.369560000000     0.405159   
C17      C      0.074350000000     0.150420000000     0.193730000000    -0.0127733  
C18      C      0.117580000000     0.084060000000     0.211420000000    -0.043338   
C19      C      0.115020000000     0.178710000000     0.196470000000    -0.0121831  
C20      C      0.159350000000     0.110580000000     0.213610000000     0.111871   
C21      C      0.138580000000     0.071720000000     0.432110000000    -0.0106731  
C22      C      0.074830000000     0.117630000000     0.415190000000    -0.0423505  
C23      C      0.169180000000     0.109460000000     0.420790000000    -0.01249    
C24      C      0.102470000000     0.157250000000     0.402200000000     0.110639   
C25      C      0.133310000000     0.441750000000     0.208190000000    -0.013415   
C26      C      0.072070000000     0.390050000000     0.216440000000    -0.0427969  
C27      C      0.165220000000     0.403700000000     0.207500000000    -0.0120839  
C28      C      0.102800000000     0.350800000000     0.216390000000     0.109338   
C29      C      0.408420000000     0.174930000000     0.141100000000    -0.012952   
C30      C      0.347310000000     0.124880000000     0.126330000000    -0.0431478  
C31      C      0.391070000000     0.187880000000     0.191080000000    -0.0100553  
C32      C      0.324940000000     0.138830000000     0.173900000000     0.111632   
C33      C      0.321450000000     0.380970000000     0.465710000000    -0.0121765  
C34      C      0.378590000000     0.324430000000     0.461150000000    -0.0428065  
C35      C      0.355450000000     0.416920000000     0.469260000000    -0.0137637  
C36      C      0.413750000000     0.359460000000     0.463640000000     0.105083   
C37      C      0.441880000000     0.131380000000     0.414640000000    -0.0126647  
C38      C      0.389570000000     0.070580000000     0.411360000000    -0.0431965  
C39      C      0.407710000000     0.165250000000     0.402800000000    -0.00938528 
C40      C      0.354020000000     0.101040000000     0.391630000000     0.108539   
C41      C      0.163080000000     0.403530000000     0.434890000000    -0.0142861  
C42      C      0.106490000000     0.344610000000     0.430960000000    -0.0461122  
C43      C      0.155910000000     0.406570000000     0.489960000000    -0.0121628  
C44      C      0.099540000000     0.348980000000     0.486220000000     0.107325   
C45      C      0.391660000000     0.353860000000     0.204670000000    -0.0144204  
C46      C      0.331530000000     0.409070000000     0.203710000000    -0.0463996  
C47      C      0.424070000000     0.391160000000     0.209320000000    -0.0114465  
C48      C      0.365260000000     0.445960000000     0.206090000000     0.111962   
C49      C      0.421910000000     0.426940000000     0.016720000000     0.403637   
C50      C      0.077780000000     0.074400000000     0.990990000000     0.395577   
C51      C      0.437740000000     0.078510000000     0.982900000000     0.392446   
C52      C      0.084590000000     0.423050000000     0.025870000000     0.402101   
C53      C      0.071960000000     0.444870000000     0.649940000000     0.387666   
C54      C      0.421530000000     0.100460000000     0.608600000000     0.392697   
C55      C      0.428010000000     0.447970000000     0.645450000000     0.399109   
C56      C      0.068650000000     0.084960000000     0.640160000000     0.388973   
C57      C      0.326930000000     0.342700000000     0.756210000000     0.390233   
C58      C      0.175770000000     0.182700000000     0.754080000000     0.403915   
C59      C      0.324670000000     0.195760000000     0.737920000000     0.397358   
C60      C      0.173540000000     0.339350000000     0.760600000000     0.401237   
C61      C      0.174410000000     0.337480000000     0.884020000000     0.393455   
C62      C      0.340350000000     0.175040000000     0.858540000000     0.403291   
C63      C      0.321480000000     0.327220000000     0.897760000000     0.397628   
C64      C      0.174950000000     0.174520000000     0.869560000000     0.405142   
C65      C      0.074350000000     0.150420000000     0.693730000000    -0.0127806  
C66      C      0.117580000000     0.084060000000     0.711420000000    -0.0433378  
C67      C      0.115020000000     0.178710000000     0.696470000000    -0.0121714  
C68      C      0.159350000000     0.110580000000     0.713610000000     0.111866   
C69      C      0.138580000000     0.071720000000     0.932110000000    -0.0107845  
C70      C      0.074830000000     0.117630000000     0.915190000000    -0.0424334  
C71      C      0.169180000000     0.109460000000     0.920780000000    -0.0124472  
C72      C      0.102470000000     0.157250000000     0.902200000000     0.110659   
C73      C      0.133310000000     0.441750000000     0.708190000000    -0.0134135  
C74      C      0.072070000000     0.390050000000     0.716440000000    -0.0427941  
C75      C      0.165220000000     0.403700000000     0.707500000000    -0.0120815  
C76      C      0.102800000000     0.350800000000     0.716390000000     0.109338   
C77      C      0.408420000000     0.174930000000     0.641100000000    -0.0129334  
C78      C      0.347310000000     0.124880000000     0.626330000000    -0.043132   
C79      C      0.391070000000     0.187880000000     0.691080000000    -0.0100858  
C80      C      0.324940000000     0.138830000000     0.673900000000     0.111625   
C81      C      0.321450000000     0.380970000000     0.965710000000    -0.01289    
C82      C      0.378590000000     0.324430000000     0.961150000000    -0.0428363  
C83      C      0.355450000000     0.416920000000     0.969250000000    -0.013623   
C84      C      0.413750000000     0.359460000000     0.963640000000     0.105113   
C85      C      0.441880000000     0.131380000000     0.914640000000    -0.0127431  
C86      C      0.389570000000     0.070580000000     0.911370000000    -0.0432358  
C87      C      0.407710000000     0.165250000000     0.902800000000    -0.009364   
C88      C      0.354020000000     0.101040000000     0.891630000000     0.108538   
C89      C      0.163080000000     0.403530000000     0.934890000000    -0.0137754  
C90      C      0.106490000000     0.344610000000     0.930960000000    -0.0457482  
C91      C      0.155910000000     0.406570000000     0.989960000000    -0.0140416  
C92      C      0.099540000000     0.348980000000     0.986220000000     0.105908   
C93      C      0.391660000000     0.353860000000     0.704670000000    -0.0143817  
C94      C      0.331530000000     0.409070000000     0.703710000000    -0.0464329  
C95      C      0.424070000000     0.391160000000     0.709320000000    -0.0114638  
C96      C      0.365260000000     0.445960000000     0.706090000000     0.111969   
C97      C      0.421910000000     0.926940000000     0.516720000000     0.403102   
C98      C      0.077780000000     0.574400000000     0.490990000000     0.397122   
C99      C      0.437740000000     0.578510000000     0.482900000000     0.393789   
C100     C      0.084590000000     0.923050000000     0.525870000000     0.402001   
C101     C      0.071960000000     0.944870000000     0.149940000000     0.387669   
C102     C      0.421530000000     0.600460000000     0.108600000000     0.39272    
C103     C      0.428010000000     0.947970000000     0.145450000000     0.399141   
C104     C      0.068650000000     0.584960000000     0.140160000000     0.388993   
C105     C      0.326930000000     0.842700000000     0.256210000000     0.390284   
C106     C      0.175770000000     0.682700000000     0.254080000000     0.403918   
C107     C      0.324670000000     0.695760000000     0.237920000000     0.397435   
C108     C      0.173540000000     0.839340000000     0.260600000000     0.401342   
C109     C      0.174410000000     0.837480000000     0.384020000000     0.393375   
C110     C      0.340350000000     0.675040000000     0.358540000000     0.403307   
C111     C      0.321480000000     0.827220000000     0.397760000000     0.397672   
C112     C      0.174950000000     0.674520000000     0.369560000000     0.405296   
C113     C      0.074350000000     0.650420000000     0.193730000000    -0.0127726  
C114     C      0.117580000000     0.584060000000     0.211420000000    -0.0433322  
C115     C      0.115020000000     0.678710000000     0.196470000000    -0.012183   
C116     C      0.159350000000     0.610580000000     0.213610000000     0.111869   
C117     C      0.138580000000     0.571720000000     0.432110000000    -0.0106696  
C118     C      0.074830000000     0.617630000000     0.415190000000    -0.0423494  
C119     C      0.169180000000     0.609460000000     0.420790000000    -0.0124863  
C120     C      0.102470000000     0.657250000000     0.402200000000     0.110645   
C121     C      0.133310000000     0.941750000000     0.208190000000    -0.0134032  
C122     C      0.072070000000     0.890050000000     0.216440000000    -0.0428053  
C123     C      0.165220000000     0.903700000000     0.207500000000    -0.0121288  
C124     C      0.102800000000     0.850800000000     0.216390000000     0.109356   
C125     C      0.408420000000     0.674930000000     0.141100000000    -0.0129658  
C126     C      0.347310000000     0.624870000000     0.126330000000    -0.0431753  
C127     C      0.391070000000     0.687880000000     0.191080000000    -0.0100174  
C128     C      0.324940000000     0.638830000000     0.173900000000     0.111641   
C129     C      0.321450000000     0.880970000000     0.465710000000    -0.012171   
C130     C      0.378590000000     0.824430000000     0.461150000000    -0.0428065  
C131     C      0.355450000000     0.916920000000     0.469260000000    -0.0137846  
C132     C      0.413750000000     0.859460000000     0.463640000000     0.105082   
C133     C      0.441880000000     0.631380000000     0.414640000000    -0.0126659  
C134     C      0.389570000000     0.570580000000     0.411360000000    -0.0432001  
C135     C      0.407710000000     0.665250000000     0.402800000000    -0.00938473 
C136     C      0.354020000000     0.601040000000     0.391630000000     0.108538   
C137     C      0.163080000000     0.903520000000     0.434890000000    -0.014206   
C138     C      0.106490000000     0.844610000000     0.430960000000    -0.0461141  
C139     C      0.155910000000     0.906570000000     0.489960000000    -0.0122031  
C140     C      0.099540000000     0.848980000000     0.486220000000     0.107322   
C141     C      0.391660000000     0.853860000000     0.204670000000    -0.0144097  
C142     C      0.331530000000     0.909080000000     0.203710000000    -0.046433   
C143     C      0.424070000000     0.891160000000     0.209320000000    -0.0114771  
C144     C      0.365260000000     0.945970000000     0.206090000000     0.112005   
C145     C      0.421910000000     0.926940000000     0.016720000000     0.40363    
C146     C      0.077780000000     0.574400000000     0.990990000000     0.395719   
C147     C      0.437740000000     0.578510000000     0.982900000000     0.392448   
C148     C      0.084590000000     0.923050000000     0.025870000000     0.401961   
C149     C      0.071960000000     0.944870000000     0.649940000000     0.387669   
C150     C      0.421530000000     0.600460000000     0.608600000000     0.3927     
C151     C      0.428010000000     0.947970000000     0.645450000000     0.399135   
C152     C      0.068650000000     0.584960000000     0.640160000000     0.388984   
C153     C      0.326930000000     0.842700000000     0.756210000000     0.390233   
C154     C      0.175770000000     0.682700000000     0.754080000000     0.403915   
C155     C      0.324670000000     0.695760000000     0.737920000000     0.397459   
C156     C      0.173540000000     0.839340000000     0.760600000000     0.401317   
C157     C      0.174410000000     0.837480000000     0.884020000000     0.393365   
C158     C      0.340350000000     0.675040000000     0.858540000000     0.403292   
C159     C      0.321480000000     0.827220000000     0.897760000000     0.397628   
C160     C      0.174950000000     0.674520000000     0.869560000000     0.40528    
C161     C      0.074350000000     0.650420000000     0.693730000000    -0.0127799  
C162     C      0.117580000000     0.584060000000     0.711420000000    -0.0433319  
C163     C      0.115020000000     0.678710000000     0.696470000000    -0.0121713  
C164     C      0.159350000000     0.610580000000     0.713610000000     0.111864   
C165     C      0.138580000000     0.571720000000     0.932110000000    -0.010781   
C166     C      0.074830000000     0.617630000000     0.915190000000    -0.0424324  
C167     C      0.169180000000     0.609460000000     0.920780000000    -0.0124435  
C168     C      0.102470000000     0.657250000000     0.902200000000     0.110666   
C169     C      0.133310000000     0.941750000000     0.708190000000    -0.0134017  
C170     C      0.072070000000     0.890050000000     0.716440000000    -0.0428024  
C171     C      0.165220000000     0.903700000000     0.707500000000    -0.0121264  
C172     C      0.102800000000     0.850800000000     0.716390000000     0.109356   
C173     C      0.408420000000     0.674930000000     0.641100000000    -0.0129471  
C174     C      0.347310000000     0.624870000000     0.626330000000    -0.0431595  
C175     C      0.391070000000     0.687880000000     0.691080000000    -0.0100479  
C176     C      0.324940000000     0.638830000000     0.673900000000     0.111634   
C177     C      0.321450000000     0.880970000000     0.965710000000    -0.0128845  
C178     C      0.378590000000     0.824430000000     0.961150000000    -0.0428362  
C179     C      0.355450000000     0.916920000000     0.969250000000    -0.0136439  
C180     C      0.413750000000     0.859460000000     0.963640000000     0.105112   
C181     C      0.441880000000     0.631380000000     0.914640000000    -0.0127443  
C182     C      0.389570000000     0.570580000000     0.911370000000    -0.0432393  
C183     C      0.407710000000     0.665250000000     0.902800000000    -0.00936345 
C184     C      0.354020000000     0.601040000000     0.891630000000     0.108537   
C185     C      0.163080000000     0.903520000000     0.934890000000    -0.0136955  
C186     C      0.106490000000     0.844610000000     0.930960000000    -0.0457501  
C187     C      0.155910000000     0.906570000000     0.989960000000    -0.0140818  
C188     C      0.099540000000     0.848980000000     0.986220000000     0.105905   
C189     C      0.391660000000     0.853860000000     0.704670000000    -0.0143709  
C190     C      0.331530000000     0.909080000000     0.703710000000    -0.0464663  
C191     C      0.424070000000     0.891160000000     0.709320000000    -0.0114944  
C192     C      0.365260000000     0.945970000000     0.706090000000     0.112012   
C193     C      0.921910000000     0.426940000000     0.516720000000     0.403014   
C194     C      0.577780000000     0.074400000000     0.490990000000     0.396982   
C195     C      0.937740000000     0.078510000000     0.482900000000     0.393881   
C196     C      0.584590000000     0.423050000000     0.525870000000     0.402144   
C197     C      0.571960000000     0.444870000000     0.149940000000     0.387666   
C198     C      0.921530000000     0.100460000000     0.108600000000     0.392752   
C199     C      0.928000000000     0.447970000000     0.145450000000     0.399184   
C200     C      0.568650000000     0.084960000000     0.140160000000     0.388985   
C201     C      0.826930000000     0.342700000000     0.256210000000     0.390283   
C202     C      0.675770000000     0.182700000000     0.254080000000     0.403915   
C203     C      0.824670000000     0.195760000000     0.237920000000     0.397334   
C204     C      0.673550000000     0.339350000000     0.260600000000     0.401294   
C205     C      0.674420000000     0.337480000000     0.384020000000     0.393501   
C206     C      0.840350000000     0.175040000000     0.358540000000     0.403443   
C207     C      0.821480000000     0.327220000000     0.397760000000     0.397672   
C208     C      0.674940000000     0.174520000000     0.369560000000     0.405128   
C209     C      0.574350000000     0.150420000000     0.193730000000    -0.0127759  
C210     C      0.617580000000     0.084060000000     0.211420000000    -0.0433387  
C211     C      0.615020000000     0.178710000000     0.196470000000    -0.0121821  
C212     C      0.659350000000     0.110580000000     0.213610000000     0.111871   
C213     C      0.638580000000     0.071720000000     0.432110000000    -0.0106776  
C214     C      0.574830000000     0.117630000000     0.415190000000    -0.0423524  
C215     C      0.669180000000     0.109460000000     0.420790000000    -0.0124772  
C216     C      0.602470000000     0.157250000000     0.402200000000     0.110636   
C217     C      0.633310000000     0.441750000000     0.208190000000    -0.013412   
C218     C      0.572070000000     0.390050000000     0.216440000000    -0.0428006  
C219     C      0.665220000000     0.403700000000     0.207500000000    -0.0120954  
C220     C      0.602800000000     0.350800000000     0.216390000000     0.109339   
C221     C      0.908420000000     0.174930000000     0.141100000000    -0.012985   
C222     C      0.847300000000     0.124880000000     0.126330000000    -0.0431976  
C223     C      0.891070000000     0.187880000000     0.191080000000    -0.0100431  
C224     C      0.824940000000     0.138830000000     0.173900000000     0.111656   
C225     C      0.821450000000     0.380970000000     0.465710000000    -0.0121755  
C226     C      0.878590000000     0.324430000000     0.461150000000    -0.0428035  
C227     C      0.855450000000     0.416920000000     0.469260000000    -0.0137669  
C228     C      0.913750000000     0.359460000000     0.463640000000     0.105072   
C229     C      0.941880000000     0.131380000000     0.414640000000    -0.0126381  
C230     C      0.889570000000     0.070580000000     0.411360000000    -0.0431422  
C231     C      0.907720000000     0.165250000000     0.402800000000    -0.00943562 
C232     C      0.854010000000     0.101040000000     0.391630000000     0.108523   
C233     C      0.663080000000     0.403530000000     0.434890000000    -0.0142973  
C234     C      0.606490000000     0.344610000000     0.430960000000    -0.0461119  
C235     C      0.655910000000     0.406570000000     0.489960000000    -0.0121599  
C236     C      0.599540000000     0.348980000000     0.486220000000     0.107319   
C237     C      0.891660000000     0.353860000000     0.204670000000    -0.0144128  
C238     C      0.831530000000     0.409070000000     0.203710000000    -0.0464092  
C239     C      0.924070000000     0.391160000000     0.209320000000    -0.0114627  
C240     C      0.865260000000     0.445960000000     0.206090000000     0.111998   
C241     C      0.921910000000     0.426940000000     0.016720000000     0.403541   
C242     C      0.577780000000     0.074400000000     0.990990000000     0.395579   
C243     C      0.937740000000     0.078510000000     0.982900000000     0.39254    
C244     C      0.584590000000     0.423050000000     0.025870000000     0.402104   
C245     C      0.571960000000     0.444870000000     0.649940000000     0.387666   
C246     C      0.921530000000     0.100460000000     0.608600000000     0.392732   
C247     C      0.928000000000     0.447970000000     0.645450000000     0.399177   
C248     C      0.568650000000     0.084960000000     0.640160000000     0.388975   
C249     C      0.826930000000     0.342700000000     0.756210000000     0.390232   
C250     C      0.675770000000     0.182700000000     0.754080000000     0.403913   
C251     C      0.824670000000     0.195760000000     0.737920000000     0.397358   
C252     C      0.673550000000     0.339350000000     0.760600000000     0.401269   
C253     C      0.674420000000     0.337480000000     0.884020000000     0.393491   
C254     C      0.840350000000     0.175040000000     0.858540000000     0.403429   
C255     C      0.821480000000     0.327220000000     0.897760000000     0.397628   
C256     C      0.674940000000     0.174520000000     0.869560000000     0.405112   
C257     C      0.574350000000     0.150420000000     0.693730000000    -0.0127832  
C258     C      0.617580000000     0.084060000000     0.711420000000    -0.0433385  
C259     C      0.615020000000     0.178710000000     0.696470000000    -0.0121704  
C260     C      0.659350000000     0.110580000000     0.713610000000     0.111865   
C261     C      0.638580000000     0.071720000000     0.932110000000    -0.010789   
C262     C      0.574830000000     0.117630000000     0.915190000000    -0.0424353  
C263     C      0.669180000000     0.109460000000     0.920780000000    -0.0124344  
C264     C      0.602470000000     0.157250000000     0.902200000000     0.110657   
C265     C      0.633310000000     0.441750000000     0.708190000000    -0.0134106  
C266     C      0.572070000000     0.390050000000     0.716440000000    -0.0427978  
C267     C      0.665220000000     0.403700000000     0.707500000000    -0.012093   
C268     C      0.602800000000     0.350800000000     0.716390000000     0.109339   
C269     C      0.908420000000     0.174930000000     0.641100000000    -0.0129664  
C270     C      0.847300000000     0.124880000000     0.626330000000    -0.0431817  
C271     C      0.891070000000     0.187880000000     0.691080000000    -0.0100736  
C272     C      0.824940000000     0.138830000000     0.673900000000     0.111649   
C273     C      0.821450000000     0.380970000000     0.965710000000    -0.012889   
C274     C      0.878590000000     0.324430000000     0.961150000000    -0.0428333  
C275     C      0.855450000000     0.416920000000     0.969250000000    -0.0136262  
C276     C      0.913750000000     0.359460000000     0.963640000000     0.105103   
C277     C      0.941880000000     0.131380000000     0.914640000000    -0.0127165  
C278     C      0.889570000000     0.070580000000     0.911370000000    -0.0431815  
C279     C      0.907720000000     0.165250000000     0.902800000000    -0.00941433 
C280     C      0.854010000000     0.101040000000     0.891630000000     0.108522   
C281     C      0.663080000000     0.403530000000     0.934890000000    -0.0137865  
C282     C      0.606490000000     0.344610000000     0.930960000000    -0.0457478  
C283     C      0.655910000000     0.406570000000     0.989960000000    -0.0140388  
C284     C      0.599540000000     0.348980000000     0.986220000000     0.105902   
C285     C      0.891660000000     0.353860000000     0.704670000000    -0.0143741  
C286     C      0.831530000000     0.409070000000     0.703710000000    -0.0464425  
C287     C      0.924070000000     0.391160000000     0.709320000000    -0.01148    
C288     C      0.865260000000     0.445960000000     0.706090000000     0.112004   
C289     C      0.921910000000     0.926940000000     0.516720000000     0.403007   
C290     C      0.577780000000     0.574400000000     0.490990000000     0.397124   
C291     C      0.937740000000     0.578510000000     0.482900000000     0.393883   
C292     C      0.584590000000     0.923050000000     0.525870000000     0.402005   
C293     C      0.571960000000     0.944870000000     0.149940000000     0.387669   
C294     C      0.921530000000     0.600460000000     0.108600000000     0.392755   
C295     C      0.928000000000     0.947970000000     0.145450000000     0.39921    
C296     C      0.568650000000     0.584960000000     0.140160000000     0.388996   
C297     C      0.826930000000     0.842700000000     0.256210000000     0.390283   
C298     C      0.675770000000     0.682700000000     0.254080000000     0.403916   
C299     C      0.824670000000     0.695760000000     0.237920000000     0.397434   
C300     C      0.673550000000     0.839340000000     0.260600000000     0.401374   
C301     C      0.674420000000     0.837480000000     0.384020000000     0.393411   
C302     C      0.840350000000     0.675040000000     0.358540000000     0.403445   
C303     C      0.821480000000     0.827220000000     0.397760000000     0.397671   
C304     C      0.674940000000     0.674520000000     0.369560000000     0.405266   
C305     C      0.574350000000     0.650420000000     0.193730000000    -0.0127752  
C306     C      0.617580000000     0.584060000000     0.211420000000    -0.0433329  
C307     C      0.615020000000     0.678710000000     0.196470000000    -0.012182   
C308     C      0.659350000000     0.610580000000     0.213610000000     0.111869   
C309     C      0.638580000000     0.571720000000     0.432110000000    -0.0106741  
C310     C      0.574830000000     0.617630000000     0.415190000000    -0.0423513  
C311     C      0.669180000000     0.609460000000     0.420790000000    -0.0124735  
C312     C      0.602470000000     0.657250000000     0.402200000000     0.110643   
C313     C      0.633310000000     0.941750000000     0.208190000000    -0.0134002  
C314     C      0.572070000000     0.890050000000     0.216440000000    -0.042809   
C315     C      0.665220000000     0.903700000000     0.207500000000    -0.0121404  
C316     C      0.602800000000     0.850800000000     0.216390000000     0.109357   
C317     C      0.908420000000     0.674930000000     0.141100000000    -0.0129987  
C318     C      0.847300000000     0.624870000000     0.126330000000    -0.0432251  
C319     C      0.891070000000     0.687880000000     0.191080000000    -0.0100051  
C320     C      0.824940000000     0.638830000000     0.173900000000     0.111665   
C321     C      0.821450000000     0.880970000000     0.465710000000    -0.01217    
C322     C      0.878590000000     0.824430000000     0.461150000000    -0.0428034  
C323     C      0.855450000000     0.916920000000     0.469260000000    -0.0137878  
C324     C      0.913750000000     0.859460000000     0.463640000000     0.105071   
C325     C      0.941880000000     0.631380000000     0.414640000000    -0.0126393  
C326     C      0.889570000000     0.570580000000     0.411360000000    -0.0431457  
C327     C      0.907720000000     0.665250000000     0.402800000000    -0.00943507 
C328     C      0.854010000000     0.601040000000     0.391630000000     0.108522   
C329     C      0.663080000000     0.903520000000     0.434890000000    -0.0142172  
C330     C      0.606490000000     0.844610000000     0.430960000000    -0.0461138  
C331     C      0.655910000000     0.906570000000     0.489960000000    -0.0122002  
C332     C      0.599540000000     0.848980000000     0.486220000000     0.107316   
C333     C      0.891660000000     0.853860000000     0.204670000000    -0.0144021  
C334     C      0.831530000000     0.909080000000     0.203710000000    -0.0464426  
C335     C      0.924070000000     0.891160000000     0.209320000000    -0.0114932  
C336     C      0.865260000000     0.945970000000     0.206090000000     0.112041   
C337     C      0.921910000000     0.926940000000     0.016720000000     0.403535   
C338     C      0.577780000000     0.574400000000     0.990990000000     0.39572    
C339     C      0.937740000000     0.578510000000     0.982900000000     0.392541   
C340     C      0.584590000000     0.923050000000     0.025870000000     0.401965   
C341     C      0.571960000000     0.944870000000     0.649940000000     0.387669   
C342     C      0.921530000000     0.600460000000     0.608600000000     0.392735   
C343     C      0.928000000000     0.947970000000     0.645450000000     0.399203   
C344     C      0.568650000000     0.584960000000     0.640160000000     0.388986   
C345     C      0.826930000000     0.842700000000     0.756210000000     0.390232   
C346     C      0.675770000000     0.682700000000     0.754080000000     0.403913   
C347     C      0.824670000000     0.695760000000     0.737920000000     0.397458   
C348     C      0.673550000000     0.839340000000     0.760600000000     0.401349   
C349     C      0.674420000000     0.837480000000     0.884020000000     0.393401   
C350     C      0.840350000000     0.675040000000     0.858540000000     0.40343    
C351     C      0.821480000000     0.827220000000     0.897760000000     0.397627   
C352     C      0.674940000000     0.674520000000     0.869560000000     0.405249   
C353     C      0.574350000000     0.650420000000     0.693730000000    -0.0127825  
C354     C      0.617580000000     0.584060000000     0.711420000000    -0.0433326  
C355     C      0.615020000000     0.678710000000     0.696470000000    -0.0121703  
C356     C      0.659350000000     0.610580000000     0.713610000000     0.111864   
C357     C      0.638580000000     0.571720000000     0.932110000000    -0.0107855  
C358     C      0.574830000000     0.617630000000     0.915190000000    -0.0424342  
C359     C      0.669180000000     0.609460000000     0.920780000000    -0.0124307  
C360     C      0.602470000000     0.657250000000     0.902200000000     0.110664   
C361     C      0.633310000000     0.941750000000     0.708190000000    -0.0133988  
C362     C      0.572070000000     0.890050000000     0.716440000000    -0.0428062  
C363     C      0.665220000000     0.903700000000     0.707500000000    -0.0121379  
C364     C      0.602800000000     0.850800000000     0.716390000000     0.109357   
C365     C      0.908420000000     0.674930000000     0.641100000000    -0.0129801  
C366     C      0.847300000000     0.624870000000     0.626330000000    -0.0432092  
C367     C      0.891070000000     0.687880000000     0.691080000000    -0.0100356  
C368     C      0.824940000000     0.638830000000     0.673900000000     0.111659   
C369     C      0.821450000000     0.880970000000     0.965710000000    -0.0128835  
C370     C      0.878590000000     0.824430000000     0.961150000000    -0.0428332  
C371     C      0.855450000000     0.916920000000     0.969250000000    -0.0136472  
C372     C      0.913750000000     0.859460000000     0.963640000000     0.105102   
C373     C      0.941880000000     0.631380000000     0.914640000000    -0.0127177  
C374     C      0.889570000000     0.570580000000     0.911370000000    -0.043185   
C375     C      0.907720000000     0.665250000000     0.902800000000    -0.00941378 
C376     C      0.854010000000     0.601040000000     0.891630000000     0.108521   
C377     C      0.663080000000     0.903520000000     0.934890000000    -0.0137066  
C378     C      0.606490000000     0.844610000000     0.930960000000    -0.0457498  
C379     C      0.655910000000     0.906570000000     0.989960000000    -0.014079   
C380     C      0.599540000000     0.848980000000     0.986220000000     0.105899   
C381     C      0.891660000000     0.853860000000     0.704670000000    -0.0143634  
C382     C      0.831530000000     0.909080000000     0.703710000000    -0.0464759  
C383     C      0.924070000000     0.891160000000     0.709320000000    -0.0115105  
C384     C      0.865260000000     0.945970000000     0.706090000000     0.112047   
Co1      Co     0.001440000000     0.447360000000     0.574900000000     0.845046   
Co2      Co     0.503800000000     0.075510000000     0.060910000000     0.842289   
Co3      Co     0.438610000000     0.512590000000     0.563970000000     0.842738   
Co4      Co     0.066160000000     0.509820000000     0.070460000000     0.8424     
Co5      Co     0.252090000000     0.325750000000     0.322280000000     0.837747   
Co6      Co     0.254960000000     0.196470000000     0.313990000000     0.841347   
Co7      Co     0.317570000000     0.262010000000     0.316990000000     0.847233   
Co8      Co     0.190270000000     0.259520000000     0.319750000000     0.846936   
Co9      Co     0.001440000000     0.447360000000     0.074900000000     0.845097   
Co10     Co     0.503800000000     0.075510000000     0.560910000000     0.842409   
Co11     Co     0.438610000000     0.512590000000     0.063970000000     0.842721   
Co12     Co     0.066160000000     0.509820000000     0.570460000000     0.842396   
Co13     Co     0.252090000000     0.325750000000     0.822280000000     0.837735   
Co14     Co     0.254960000000     0.196470000000     0.813990000000     0.841289   
Co15     Co     0.317570000000     0.262010000000     0.816990000000     0.847225   
Co16     Co     0.190270000000     0.259520000000     0.819750000000     0.846963   
Co17     Co     0.001440000000     0.947360000000     0.574900000000     0.84512    
Co18     Co     0.503800000000     0.575510000000     0.060910000000     0.842248   
Co19     Co     0.438610000000     0.012590000000     0.563970000000     0.842574   
Co20     Co     0.066160000000     0.009810000000     0.070460000000     0.842284   
Co21     Co     0.252090000000     0.825750000000     0.322280000000     0.8377     
Co22     Co     0.254960000000     0.696470000000     0.313990000000     0.841395   
Co23     Co     0.317570000000     0.762010000000     0.316990000000     0.847244   
Co24     Co     0.190270000000     0.759520000000     0.319750000000     0.846912   
Co25     Co     0.001440000000     0.947360000000     0.074900000000     0.845171   
Co26     Co     0.503800000000     0.575510000000     0.560910000000     0.842368   
Co27     Co     0.438610000000     0.012590000000     0.063970000000     0.842557   
Co28     Co     0.066160000000     0.009810000000     0.570460000000     0.842281   
Co29     Co     0.252090000000     0.825750000000     0.822280000000     0.837689   
Co30     Co     0.254960000000     0.696470000000     0.813990000000     0.841336   
Co31     Co     0.317570000000     0.762010000000     0.816990000000     0.847236   
Co32     Co     0.190270000000     0.759520000000     0.819750000000     0.846939   
Co33     Co     0.501440000000     0.447360000000     0.574900000000     0.845217   
Co34     Co     0.003800000000     0.075510000000     0.060910000000     0.842184   
Co35     Co     0.938610000000     0.512590000000     0.563970000000     0.842874   
Co36     Co     0.566160000000     0.509820000000     0.070460000000     0.842381   
Co37     Co     0.752090000000     0.325750000000     0.322280000000     0.837763   
Co38     Co     0.754960000000     0.196470000000     0.313990000000     0.841309   
Co39     Co     0.817570000000     0.262010000000     0.316990000000     0.847241   
Co40     Co     0.690270000000     0.259520000000     0.319750000000     0.846931   
Co41     Co     0.501440000000     0.447360000000     0.074900000000     0.845268   
Co42     Co     0.003800000000     0.075510000000     0.560910000000     0.842304   
Co43     Co     0.938610000000     0.512590000000     0.063970000000     0.842858   
Co44     Co     0.566160000000     0.509820000000     0.570460000000     0.842378   
Co45     Co     0.752090000000     0.325750000000     0.822280000000     0.837752   
Co46     Co     0.754960000000     0.196470000000     0.813990000000     0.841251   
Co47     Co     0.817570000000     0.262010000000     0.816990000000     0.847234   
Co48     Co     0.690270000000     0.259520000000     0.819750000000     0.846958   
Co49     Co     0.501440000000     0.947360000000     0.574900000000     0.845291   
Co50     Co     0.003800000000     0.575510000000     0.060910000000     0.842143   
Co51     Co     0.938610000000     0.012590000000     0.563970000000     0.84271    
Co52     Co     0.566160000000     0.009810000000     0.070460000000     0.842266   
Co53     Co     0.752090000000     0.825750000000     0.322280000000     0.837717   
Co54     Co     0.754960000000     0.696470000000     0.313990000000     0.841356   
Co55     Co     0.817570000000     0.762010000000     0.316990000000     0.847253   
Co56     Co     0.690270000000     0.759520000000     0.319750000000     0.846907   
Co57     Co     0.501440000000     0.947360000000     0.074900000000     0.845342   
Co58     Co     0.003800000000     0.575510000000     0.560910000000     0.842263   
Co59     Co     0.938610000000     0.012590000000     0.063970000000     0.842693   
Co60     Co     0.566160000000     0.009810000000     0.570460000000     0.842262   
Co61     Co     0.752090000000     0.825750000000     0.822280000000     0.837705   
Co62     Co     0.754960000000     0.696470000000     0.813990000000     0.841298   
Co63     Co     0.817570000000     0.762010000000     0.816990000000     0.847245   
Co64     Co     0.690270000000     0.759520000000     0.819750000000     0.846934   
H1       H      0.103820000000     0.082230000000     0.248870000000     0.0662206  
H2       H      0.059160000000     0.149790000000     0.230470000000     0.0616402  
H3       H      0.105930000000     0.211220000000     0.211280000000     0.0742402  
H4       H      0.124850000000     0.050070000000     0.199730000000     0.0727053  
H5       H      0.174800000000     0.108770000000     0.177100000000     0.0512675  
H6       H      0.051150000000     0.165620000000     0.167910000000     0.0585492  
H7       H      0.126760000000     0.184120000000     0.158630000000     0.0536371  
H8       H      0.068260000000     0.098550000000     0.381420000000     0.0636874  
H9       H      0.133160000000     0.052860000000     0.397950000000     0.0503956  
H10      H      0.197330000000     0.096010000000     0.400630000000     0.0660884  
H11      H      0.043260000000     0.129180000000     0.429210000000     0.0703698  
H12      H      0.100830000000     0.181050000000     0.432800000000     0.041421   
H13      H      0.154150000000     0.049570000000     0.459000000000     0.053721   
H14      H      0.181700000000     0.122570000000     0.455870000000     0.0501374  
H15      H      0.066660000000     0.400350000000     0.254890000000     0.0644035  
H16      H      0.129590000000     0.452970000000     0.246550000000     0.0509089  
H17      H      0.195890000000     0.415000000000     0.224210000000     0.0598652  
H18      H      0.040360000000     0.380080000000     0.201210000000     0.0734963  
H19      H      0.104600000000     0.338190000000     0.178410000000     0.0379119  
H20      H      0.146800000000     0.469300000000     0.186650000000     0.0593804  
H21      H      0.172290000000     0.395550000000     0.168780000000     0.0482435  
H22      H      0.335140000000     0.145380000000     0.095750000000     0.0675525  
H23      H      0.395680000000     0.198350000000     0.113610000000     0.0497698  
H24      H      0.396930000000     0.223470000000     0.196120000000     0.0557467  
H25      H      0.337860000000     0.090650000000     0.117960000000     0.0852173  
H26      H      0.325580000000     0.110720000000     0.199620000000     0.0625313  
H27      H      0.444120000000     0.178070000000     0.141530000000     0.0575792  
H28      H      0.410280000000     0.170680000000     0.219450000000     0.0555237  
H29      H      0.371260000000     0.313410000000     0.498920000000     0.0631604  
H30      H      0.312630000000     0.370800000000     0.503370000000     0.0454583  
H31      H      0.341920000000     0.443350000000     0.492480000000     0.0575673  
H32      H      0.390680000000     0.295700000000     0.440430000000     0.0736734  
H33      H      0.422310000000     0.367980000000     0.425410000000     0.0384377  
H34      H      0.292010000000     0.394330000000     0.448070000000     0.05311    
H35      H      0.360490000000     0.430850000000     0.432210000000     0.0511579  
H36      H      0.406590000000     0.054900000000     0.380220000000     0.0668674  
H37      H      0.456500000000     0.119870000000     0.379880000000     0.0504901  
H38      H      0.422570000000     0.190170000000     0.378480000000     0.0607124  
H39      H      0.374150000000     0.043820000000     0.432530000000     0.0685361  
H40      H      0.327980000000     0.102910000000     0.419450000000     0.0379715  
H41      H      0.467610000000     0.147340000000     0.436450000000     0.0585853  
H42      H      0.398490000000     0.182310000000     0.437080000000     0.0517512  
H43      H      0.082000000000     0.364980000000     0.411960000000     0.0739943  
H44      H      0.143190000000     0.429070000000     0.416840000000     0.0506493  
H45      H      0.164700000000     0.439970000000     0.502330000000     0.0545733  
H46      H      0.100880000000     0.310050000000     0.420140000000     0.0847635  
H47      H      0.121910000000     0.325610000000     0.504270000000     0.0342831  
H48      H      0.197480000000     0.410800000000     0.427030000000     0.0544612  
H49      H      0.178510000000     0.383450000000     0.508050000000     0.0447245  
H50      H      0.322800000000     0.403720000000     0.164820000000     0.0655194  
H51      H      0.388360000000     0.345390000000     0.165400000000     0.0524556  
H52      H      0.455640000000     0.380150000000     0.194700000000     0.059155   
H53      H      0.301910000000     0.419590000000     0.223260000000     0.0766555  
H54      H      0.370690000000     0.452810000000     0.245480000000     0.0384463  
H55      H      0.404710000000     0.324720000000     0.223830000000     0.0587187  
H56      H      0.428820000000     0.398140000000     0.248790000000     0.0483884  
H57      H      0.103820000000     0.082230000000     0.748870000000     0.066221   
H58      H      0.059160000000     0.149790000000     0.730470000000     0.0616421  
H59      H      0.105930000000     0.211220000000     0.711290000000     0.0742346  
H60      H      0.124850000000     0.050070000000     0.699730000000     0.0727001  
H61      H      0.174800000000     0.108770000000     0.677110000000     0.0512347  
H62      H      0.051150000000     0.165620000000     0.667910000000     0.0585309  
H63      H      0.126760000000     0.184120000000     0.658630000000     0.0535949  
H64      H      0.068260000000     0.098550000000     0.881420000000     0.0636902  
H65      H      0.133160000000     0.052860000000     0.897960000000     0.0503921  
H66      H      0.197330000000     0.096010000000     0.900630000000     0.0660469  
H67      H      0.043260000000     0.129180000000     0.929210000000     0.0702806  
H68      H      0.100830000000     0.181050000000     0.932800000000     0.0413192  
H69      H      0.154150000000     0.049570000000     0.959000000000     0.0535851  
H70      H      0.181700000000     0.122570000000     0.955860000000     0.0500146  
H71      H      0.066660000000     0.400350000000     0.754890000000     0.0643975  
H72      H      0.129590000000     0.452970000000     0.746550000000     0.0509053  
H73      H      0.195890000000     0.415000000000     0.724210000000     0.0598577  
H74      H      0.040360000000     0.380080000000     0.701210000000     0.0734897  
H75      H      0.104600000000     0.338190000000     0.678410000000     0.0378951  
H76      H      0.146800000000     0.469300000000     0.686650000000     0.0593705  
H77      H      0.172290000000     0.395550000000     0.668780000000     0.0482227  
H78      H      0.335140000000     0.145380000000     0.595750000000     0.0674568  
H79      H      0.395680000000     0.198350000000     0.613610000000     0.0496867  
H80      H      0.396930000000     0.223470000000     0.696120000000     0.0557394  
H81      H      0.337860000000     0.090650000000     0.617960000000     0.0851676  
H82      H      0.325580000000     0.110720000000     0.699610000000     0.062526   
H83      H      0.444120000000     0.178070000000     0.641530000000     0.0575455  
H84      H      0.410280000000     0.170680000000     0.719440000000     0.0555351  
H85      H      0.371260000000     0.313410000000     0.998920000000     0.0629968  
H86      H      0.312630000000     0.370800000000     0.003360000000     0.0460403  
H87      H      0.341920000000     0.443350000000     0.992480000000     0.0573075  
H88      H      0.390680000000     0.295700000000     0.940430000000     0.0736474  
H89      H      0.422310000000     0.367980000000     0.925410000000     0.0384046  
H90      H      0.292010000000     0.394330000000     0.948070000000     0.0531761  
H91      H      0.360490000000     0.430850000000     0.932220000000     0.0510932  
H92      H      0.406590000000     0.054900000000     0.880220000000     0.0668446  
H93      H      0.456500000000     0.119870000000     0.879880000000     0.0504938  
H94      H      0.422570000000     0.190170000000     0.878480000000     0.0606943  
H95      H      0.374150000000     0.043820000000     0.932530000000     0.0684303  
H96      H      0.327980000000     0.102910000000     0.919450000000     0.0378987  
H97      H      0.467610000000     0.147340000000     0.936450000000     0.0584836  
H98      H      0.398490000000     0.182310000000     0.937080000000     0.0516582  
H99      H      0.082000000000     0.364980000000     0.911960000000     0.0738447  
H100     H      0.143190000000     0.429070000000     0.916840000000     0.0504635  
H101     H      0.164700000000     0.439970000000     0.002330000000     0.0553308  
H102     H      0.100880000000     0.310050000000     0.920140000000     0.0845854  
H103     H      0.121910000000     0.325610000000     0.004270000000     0.034937   
H104     H      0.197480000000     0.410800000000     0.927030000000     0.0542501  
H105     H      0.178510000000     0.383450000000     0.008050000000     0.0454763  
H106     H      0.322800000000     0.403720000000     0.664830000000     0.0655019  
H107     H      0.388360000000     0.345390000000     0.665390000000     0.0524005  
H108     H      0.455640000000     0.380150000000     0.694700000000     0.0591481  
H109     H      0.301910000000     0.419590000000     0.723260000000     0.0766545  
H110     H      0.370690000000     0.452810000000     0.745480000000     0.0384433  
H111     H      0.404710000000     0.324720000000     0.723830000000     0.0586989  
H112     H      0.428820000000     0.398140000000     0.748790000000     0.0483866  
H113     H      0.103820000000     0.582220000000     0.248870000000     0.066226   
H114     H      0.059160000000     0.649790000000     0.230470000000     0.061644   
H115     H      0.105930000000     0.711220000000     0.211280000000     0.07424    
H116     H      0.124850000000     0.550070000000     0.199730000000     0.0727294  
H117     H      0.174800000000     0.608770000000     0.177100000000     0.0512742  
H118     H      0.051150000000     0.665620000000     0.167910000000     0.0585489  
H119     H      0.126760000000     0.684120000000     0.158630000000     0.0536365  
H120     H      0.068260000000     0.598550000000     0.381420000000     0.0636945  
H121     H      0.133160000000     0.552860000000     0.397950000000     0.0504125  
H122     H      0.197330000000     0.596010000000     0.400630000000     0.0660945  
H123     H      0.043260000000     0.629180000000     0.429210000000     0.0703693  
H124     H      0.100830000000     0.681050000000     0.432800000000     0.0414179  
H125     H      0.154150000000     0.549570000000     0.459000000000     0.0537417  
H126     H      0.181700000000     0.622570000000     0.455870000000     0.0501387  
H127     H      0.066660000000     0.900350000000     0.254890000000     0.0644151  
H128     H      0.129590000000     0.952970000000     0.246550000000     0.0509307  
H129     H      0.195890000000     0.914990000000     0.224210000000     0.0598941  
H130     H      0.040360000000     0.880080000000     0.201210000000     0.0734998  
H131     H      0.104600000000     0.838190000000     0.178410000000     0.0379074  
H132     H      0.146800000000     0.969300000000     0.186650000000     0.0594062  
H133     H      0.172290000000     0.895550000000     0.168780000000     0.0482571  
H134     H      0.335140000000     0.645380000000     0.095750000000     0.0675572  
H135     H      0.395680000000     0.698350000000     0.113610000000     0.0497712  
H136     H      0.396930000000     0.723480000000     0.196120000000     0.055733   
H137     H      0.337860000000     0.590650000000     0.117960000000     0.0852513  
H138     H      0.325580000000     0.610720000000     0.199620000000     0.0625399  
H139     H      0.444120000000     0.678070000000     0.141530000000     0.0575824  
H140     H      0.410280000000     0.670680000000     0.219450000000     0.055517   
H141     H      0.371260000000     0.813410000000     0.498920000000     0.063159   
H142     H      0.312630000000     0.870800000000     0.503370000000     0.0454585  
H143     H      0.341920000000     0.943350000000     0.492480000000     0.057592   
H144     H      0.390680000000     0.795700000000     0.440430000000     0.0736728  
H145     H      0.422310000000     0.867980000000     0.425410000000     0.0384438  
H146     H      0.292010000000     0.894330000000     0.448070000000     0.0531164  
H147     H      0.360490000000     0.930840000000     0.432210000000     0.0511864  
H148     H      0.406590000000     0.554900000000     0.380220000000     0.0668858  
H149     H      0.456500000000     0.619870000000     0.379880000000     0.0504953  
H150     H      0.422570000000     0.690170000000     0.378480000000     0.0607121  
H151     H      0.374150000000     0.543820000000     0.432530000000     0.0685589  
H152     H      0.327980000000     0.602910000000     0.419450000000     0.0379772  
H153     H      0.467610000000     0.647340000000     0.436450000000     0.0585857  
H154     H      0.398490000000     0.682310000000     0.437080000000     0.0517503  
H155     H      0.082000000000     0.864980000000     0.411960000000     0.0740024  
H156     H      0.143190000000     0.929070000000     0.416840000000     0.0506468  
H157     H      0.164700000000     0.939970000000     0.502330000000     0.0546004  
H158     H      0.100880000000     0.810050000000     0.420140000000     0.0847641  
H159     H      0.121910000000     0.825610000000     0.504270000000     0.034282   
H160     H      0.197480000000     0.910800000000     0.427030000000     0.0544529  
H161     H      0.178510000000     0.883450000000     0.508050000000     0.0447339  
H162     H      0.322800000000     0.903720000000     0.164820000000     0.0655316  
H163     H      0.388360000000     0.845390000000     0.165400000000     0.0524506  
H164     H      0.455640000000     0.880150000000     0.194700000000     0.059164   
H165     H      0.301910000000     0.919600000000     0.223260000000     0.076673   
H166     H      0.370690000000     0.952810000000     0.245480000000     0.0384495  
H167     H      0.404710000000     0.824720000000     0.223830000000     0.0587165  
H168     H      0.428820000000     0.898150000000     0.248790000000     0.048407   
H169     H      0.103820000000     0.582220000000     0.748870000000     0.0662265  
H170     H      0.059160000000     0.649790000000     0.730470000000     0.061646   
H171     H      0.105930000000     0.711220000000     0.711290000000     0.0742345  
H172     H      0.124850000000     0.550070000000     0.699730000000     0.0727242  
H173     H      0.174800000000     0.608770000000     0.677110000000     0.0512413  
H174     H      0.051150000000     0.665620000000     0.667910000000     0.0585305  
H175     H      0.126760000000     0.684120000000     0.658630000000     0.0535943  
H176     H      0.068260000000     0.598550000000     0.881420000000     0.0636973  
H177     H      0.133160000000     0.552860000000     0.897960000000     0.050409   
H178     H      0.197330000000     0.596010000000     0.900630000000     0.066053   
H179     H      0.043260000000     0.629180000000     0.929210000000     0.0702801  
H180     H      0.100830000000     0.681050000000     0.932800000000     0.0413161  
H181     H      0.154150000000     0.549570000000     0.959000000000     0.0536058  
H182     H      0.181700000000     0.622570000000     0.955860000000     0.0500159  
H183     H      0.066660000000     0.900350000000     0.754890000000     0.0644091  
H184     H      0.129590000000     0.952970000000     0.746550000000     0.0509271  
H185     H      0.195890000000     0.914990000000     0.724210000000     0.0598865  
H186     H      0.040360000000     0.880080000000     0.701210000000     0.0734933  
H187     H      0.104600000000     0.838190000000     0.678410000000     0.0378906  
H188     H      0.146800000000     0.969300000000     0.686650000000     0.0593964  
H189     H      0.172290000000     0.895550000000     0.668780000000     0.0482363  
H190     H      0.335140000000     0.645380000000     0.595750000000     0.0674615  
H191     H      0.395680000000     0.698350000000     0.613610000000     0.0496881  
H192     H      0.396930000000     0.723480000000     0.696120000000     0.0557256  
H193     H      0.337860000000     0.590650000000     0.617960000000     0.0852017  
H194     H      0.325580000000     0.610720000000     0.699610000000     0.0625346  
H195     H      0.444120000000     0.678070000000     0.641530000000     0.0575487  
H196     H      0.410280000000     0.670680000000     0.719440000000     0.0555284  
H197     H      0.371260000000     0.813410000000     0.998920000000     0.0629954  
H198     H      0.312630000000     0.870800000000     0.003360000000     0.0460405  
H199     H      0.341920000000     0.943350000000     0.992480000000     0.0573323  
H200     H      0.390680000000     0.795700000000     0.940430000000     0.0736468  
H201     H      0.422310000000     0.867980000000     0.925410000000     0.0384107  
H202     H      0.292010000000     0.894330000000     0.948070000000     0.0531825  
H203     H      0.360490000000     0.930840000000     0.932220000000     0.0511218  
H204     H      0.406590000000     0.554900000000     0.880220000000     0.0668629  
H205     H      0.456500000000     0.619870000000     0.879880000000     0.0504989  
H206     H      0.422570000000     0.690170000000     0.878480000000     0.060694   
H207     H      0.374150000000     0.543820000000     0.932530000000     0.0684531  
H208     H      0.327980000000     0.602910000000     0.919450000000     0.0379043  
H209     H      0.467610000000     0.647340000000     0.936450000000     0.0584839  
H210     H      0.398490000000     0.682310000000     0.937080000000     0.0516573  
H211     H      0.082000000000     0.864980000000     0.911960000000     0.0738528  
H212     H      0.143190000000     0.929070000000     0.916840000000     0.0504611  
H213     H      0.164700000000     0.939970000000     0.002330000000     0.0553579  
H214     H      0.100880000000     0.810050000000     0.920140000000     0.084586   
H215     H      0.121910000000     0.825610000000     0.004270000000     0.0349358  
H216     H      0.197480000000     0.910800000000     0.927030000000     0.0542418  
H217     H      0.178510000000     0.883450000000     0.008050000000     0.0454857  
H218     H      0.322800000000     0.903720000000     0.664830000000     0.0655141  
H219     H      0.388360000000     0.845390000000     0.665390000000     0.0523954  
H220     H      0.455640000000     0.880150000000     0.694700000000     0.059157   
H221     H      0.301910000000     0.919600000000     0.723260000000     0.076672   
H222     H      0.370690000000     0.952810000000     0.745480000000     0.0384465  
H223     H      0.404710000000     0.824720000000     0.723830000000     0.0586967  
H224     H      0.428820000000     0.898150000000     0.748790000000     0.0484051  
H225     H      0.603820000000     0.082230000000     0.248870000000     0.0662254  
H226     H      0.559160000000     0.149790000000     0.230470000000     0.0616524  
H227     H      0.605930000000     0.211220000000     0.211280000000     0.0742431  
H228     H      0.624850000000     0.050070000000     0.199730000000     0.072707   
H229     H      0.674800000000     0.108770000000     0.177100000000     0.0512669  
H230     H      0.551150000000     0.165620000000     0.167910000000     0.0585648  
H231     H      0.626760000000     0.184120000000     0.158630000000     0.0536382  
H232     H      0.568260000000     0.098550000000     0.381420000000     0.0636982  
H233     H      0.633160000000     0.052860000000     0.397950000000     0.0503989  
H234     H      0.697330000000     0.096010000000     0.400630000000     0.0660833  
H235     H      0.543260000000     0.129180000000     0.429210000000     0.070391   
H236     H      0.600830000000     0.181050000000     0.432800000000     0.0414254  
H237     H      0.654150000000     0.049570000000     0.459000000000     0.0537217  
H238     H      0.681700000000     0.122570000000     0.455870000000     0.0501348  
H239     H      0.566660000000     0.400350000000     0.254890000000     0.0644167  
H240     H      0.629590000000     0.452970000000     0.246550000000     0.0509121  
H241     H      0.695890000000     0.415000000000     0.224210000000     0.0598684  
H242     H      0.540360000000     0.380080000000     0.201210000000     0.0735177  
H243     H      0.604600000000     0.338190000000     0.178410000000     0.0379139  
H244     H      0.646800000000     0.469300000000     0.186650000000     0.0593797  
H245     H      0.672290000000     0.395550000000     0.168780000000     0.0482436  
H246     H      0.835140000000     0.145380000000     0.095750000000     0.0675695  
H247     H      0.895680000000     0.198350000000     0.113610000000     0.0497811  
H248     H      0.896930000000     0.223470000000     0.196120000000     0.0557509  
H249     H      0.837860000000     0.090650000000     0.117960000000     0.085229   
H250     H      0.825580000000     0.110720000000     0.199620000000     0.0625275  
H251     H      0.944120000000     0.178070000000     0.141530000000     0.0575997  
H252     H      0.910280000000     0.170680000000     0.219450000000     0.0555309  
H253     H      0.871260000000     0.313410000000     0.498920000000     0.0631604  
H254     H      0.812630000000     0.370800000000     0.503370000000     0.0454575  
H255     H      0.841920000000     0.443350000000     0.492480000000     0.0575719  
H256     H      0.890680000000     0.295700000000     0.440430000000     0.0736763  
H257     H      0.922310000000     0.367980000000     0.425410000000     0.0384501  
H258     H      0.792010000000     0.394330000000     0.448070000000     0.0531092  
H259     H      0.860490000000     0.430850000000     0.432210000000     0.0511619  
H260     H      0.906590000000     0.054900000000     0.380220000000     0.0668667  
H261     H      0.956500000000     0.119870000000     0.379880000000     0.050505   
H262     H      0.922570000000     0.190170000000     0.378480000000     0.0607381  
H263     H      0.874140000000     0.043820000000     0.432530000000     0.0685136  
H264     H      0.827980000000     0.102910000000     0.419450000000     0.0379578  
H265     H      0.967610000000     0.147340000000     0.436450000000     0.0586003  
H266     H      0.898490000000     0.182310000000     0.437080000000     0.0517668  
H267     H      0.582000000000     0.364980000000     0.411960000000     0.0740054  
H268     H      0.643190000000     0.429070000000     0.416840000000     0.0506556  
H269     H      0.664700000000     0.439970000000     0.502330000000     0.054572   
H270     H      0.600880000000     0.310050000000     0.420140000000     0.0847705  
H271     H      0.621910000000     0.325610000000     0.504270000000     0.0342839  
H272     H      0.697480000000     0.410800000000     0.427030000000     0.0544638  
H273     H      0.678510000000     0.383450000000     0.508050000000     0.0447217  
H274     H      0.822800000000     0.403720000000     0.164820000000     0.0655209  
H275     H      0.888370000000     0.345390000000     0.165400000000     0.0524563  
H276     H      0.955640000000     0.380150000000     0.194700000000     0.0591764  
H277     H      0.801910000000     0.419590000000     0.223260000000     0.0766574  
H278     H      0.870690000000     0.452810000000     0.245480000000     0.0384417  
H279     H      0.904710000000     0.324720000000     0.223830000000     0.0587247  
H280     H      0.928820000000     0.398140000000     0.248790000000     0.0484047  
H281     H      0.603820000000     0.082230000000     0.748870000000     0.0662258  
H282     H      0.559160000000     0.149790000000     0.730470000000     0.0616543  
H283     H      0.605930000000     0.211220000000     0.711290000000     0.0742375  
H284     H      0.624850000000     0.050070000000     0.699730000000     0.0727019  
H285     H      0.674800000000     0.108770000000     0.677110000000     0.0512341  
H286     H      0.551150000000     0.165620000000     0.667910000000     0.0585465  
H287     H      0.626760000000     0.184120000000     0.658630000000     0.0535959  
H288     H      0.568260000000     0.098550000000     0.881420000000     0.063701   
H289     H      0.633160000000     0.052860000000     0.897960000000     0.0503955  
H290     H      0.697330000000     0.096010000000     0.900630000000     0.0660418  
H291     H      0.543260000000     0.129180000000     0.929210000000     0.0703018  
H292     H      0.600830000000     0.181050000000     0.932800000000     0.0413236  
H293     H      0.654150000000     0.049570000000     0.959000000000     0.0535858  
H294     H      0.681700000000     0.122570000000     0.955860000000     0.050012   
H295     H      0.566660000000     0.400350000000     0.754890000000     0.0644107  
H296     H      0.629590000000     0.452970000000     0.746550000000     0.0509085  
H297     H      0.695890000000     0.415000000000     0.724210000000     0.0598608  
H298     H      0.540360000000     0.380080000000     0.701210000000     0.0735111  
H299     H      0.604600000000     0.338190000000     0.678410000000     0.0378971  
H300     H      0.646800000000     0.469300000000     0.686650000000     0.0593698  
H301     H      0.672290000000     0.395550000000     0.668780000000     0.0482228  
H302     H      0.835140000000     0.145380000000     0.595750000000     0.0674737  
H303     H      0.895680000000     0.198350000000     0.613610000000     0.0496979  
H304     H      0.896930000000     0.223470000000     0.696120000000     0.0557436  
H305     H      0.837860000000     0.090650000000     0.617960000000     0.0851793  
H306     H      0.825580000000     0.110720000000     0.699610000000     0.0625222  
H307     H      0.944120000000     0.178070000000     0.641530000000     0.057566   
H308     H      0.910280000000     0.170680000000     0.719440000000     0.0555423  
H309     H      0.871260000000     0.313410000000     0.998920000000     0.0629968  
H310     H      0.812630000000     0.370800000000     0.003360000000     0.0460395  
H311     H      0.841920000000     0.443350000000     0.992480000000     0.0573122  
H312     H      0.890680000000     0.295700000000     0.940430000000     0.0736503  
H313     H      0.922310000000     0.367980000000     0.925410000000     0.0384171  
H314     H      0.792010000000     0.394330000000     0.948070000000     0.0531753  
H315     H      0.860490000000     0.430850000000     0.932220000000     0.0510973  
H316     H      0.906590000000     0.054900000000     0.880220000000     0.0668439  
H317     H      0.956500000000     0.119870000000     0.879880000000     0.0505086  
H318     H      0.922570000000     0.190170000000     0.878480000000     0.06072    
H319     H      0.874140000000     0.043820000000     0.932530000000     0.0684078  
H320     H      0.827980000000     0.102910000000     0.919450000000     0.037885   
H321     H      0.967610000000     0.147340000000     0.936450000000     0.0584985  
H322     H      0.898490000000     0.182310000000     0.937080000000     0.0516738  
H323     H      0.582000000000     0.364980000000     0.911960000000     0.0738559  
H324     H      0.643190000000     0.429070000000     0.916840000000     0.0504698  
H325     H      0.664700000000     0.439970000000     0.002330000000     0.0553296  
H326     H      0.600880000000     0.310050000000     0.920140000000     0.0845924  
H327     H      0.621910000000     0.325610000000     0.004270000000     0.0349378  
H328     H      0.697480000000     0.410800000000     0.927030000000     0.0542527  
H329     H      0.678510000000     0.383450000000     0.008050000000     0.0454735  
H330     H      0.822800000000     0.403720000000     0.664830000000     0.0655034  
H331     H      0.888370000000     0.345390000000     0.665390000000     0.0524011  
H332     H      0.955640000000     0.380150000000     0.694700000000     0.0591695  
H333     H      0.801910000000     0.419590000000     0.723260000000     0.0766564  
H334     H      0.870690000000     0.452810000000     0.745480000000     0.0384387  
H335     H      0.904710000000     0.324720000000     0.723830000000     0.058705   
H336     H      0.928820000000     0.398140000000     0.748790000000     0.0484028  
H337     H      0.603820000000     0.582220000000     0.248870000000     0.0662309  
H338     H      0.559160000000     0.649790000000     0.230470000000     0.0616562  
H339     H      0.605930000000     0.711220000000     0.211280000000     0.0742429  
H340     H      0.624850000000     0.550070000000     0.199730000000     0.0727311  
H341     H      0.674800000000     0.608770000000     0.177100000000     0.0512736  
H342     H      0.551150000000     0.665620000000     0.167910000000     0.0585645  
H343     H      0.626760000000     0.684120000000     0.158630000000     0.0536376  
H344     H      0.568260000000     0.598550000000     0.381420000000     0.0637053  
H345     H      0.633160000000     0.552860000000     0.397950000000     0.0504159  
H346     H      0.697330000000     0.596010000000     0.400630000000     0.0660893  
H347     H      0.543260000000     0.629180000000     0.429210000000     0.0703905  
H348     H      0.600830000000     0.681050000000     0.432800000000     0.0414223  
H349     H      0.654150000000     0.549570000000     0.459000000000     0.0537424  
H350     H      0.681700000000     0.622570000000     0.455870000000     0.0501361  
H351     H      0.566660000000     0.900350000000     0.254890000000     0.0644283  
H352     H      0.629590000000     0.952970000000     0.246550000000     0.0509339  
H353     H      0.695890000000     0.914990000000     0.224210000000     0.0598973  
H354     H      0.540360000000     0.880080000000     0.201210000000     0.0735213  
H355     H      0.604600000000     0.838190000000     0.178410000000     0.0379094  
H356     H      0.646800000000     0.969300000000     0.186650000000     0.0594056  
H357     H      0.672290000000     0.895550000000     0.168780000000     0.0482572  
H358     H      0.835140000000     0.645380000000     0.095750000000     0.0675742  
H359     H      0.895680000000     0.698350000000     0.113610000000     0.0497824  
H360     H      0.896930000000     0.723480000000     0.196120000000     0.0557371  
H361     H      0.837860000000     0.590650000000     0.117960000000     0.085263   
H362     H      0.825580000000     0.610720000000     0.199620000000     0.0625362  
H363     H      0.944120000000     0.678070000000     0.141530000000     0.0576029  
H364     H      0.910280000000     0.670680000000     0.219450000000     0.0555242  
H365     H      0.871260000000     0.813410000000     0.498920000000     0.0631589  
H366     H      0.812630000000     0.870800000000     0.503370000000     0.0454577  
H367     H      0.841920000000     0.943350000000     0.492480000000     0.0575967  
H368     H      0.890680000000     0.795700000000     0.440430000000     0.0736756  
H369     H      0.922310000000     0.867980000000     0.425410000000     0.0384562  
H370     H      0.792010000000     0.894330000000     0.448070000000     0.0531157  
H371     H      0.860490000000     0.930840000000     0.432210000000     0.0511905  
H372     H      0.906590000000     0.554900000000     0.380220000000     0.0668851  
H373     H      0.956500000000     0.619870000000     0.379880000000     0.0505101  
H374     H      0.922570000000     0.690170000000     0.378480000000     0.0607377  
H375     H      0.874140000000     0.543820000000     0.432530000000     0.0685365  
H376     H      0.827980000000     0.602910000000     0.419450000000     0.0379634  
H377     H      0.967610000000     0.647340000000     0.436450000000     0.0586007  
H378     H      0.898490000000     0.682310000000     0.437080000000     0.0517658  
H379     H      0.582000000000     0.864980000000     0.411960000000     0.0740135  
H380     H      0.643190000000     0.929070000000     0.416840000000     0.0506531  
H381     H      0.664700000000     0.939970000000     0.502330000000     0.0545991  
H382     H      0.600880000000     0.810050000000     0.420140000000     0.0847711  
H383     H      0.621910000000     0.825610000000     0.504270000000     0.0342828  
H384     H      0.697480000000     0.910800000000     0.427030000000     0.0544555  
H385     H      0.678510000000     0.883450000000     0.508050000000     0.0447312  
H386     H      0.822800000000     0.903720000000     0.164820000000     0.0655331  
H387     H      0.888370000000     0.845390000000     0.165400000000     0.0524512  
H388     H      0.955640000000     0.880150000000     0.194700000000     0.0591854  
H389     H      0.801910000000     0.919600000000     0.223260000000     0.0766749  
H390     H      0.870690000000     0.952810000000     0.245480000000     0.0384448  
H391     H      0.904710000000     0.824720000000     0.223830000000     0.0587225  
H392     H      0.928820000000     0.898150000000     0.248790000000     0.0484232  
H393     H      0.603820000000     0.582220000000     0.748870000000     0.0662313  
H394     H      0.559160000000     0.649790000000     0.730470000000     0.0616582  
H395     H      0.605930000000     0.711220000000     0.711290000000     0.0742374  
H396     H      0.624850000000     0.550070000000     0.699730000000     0.0727259  
H397     H      0.674800000000     0.608770000000     0.677110000000     0.0512407  
H398     H      0.551150000000     0.665620000000     0.667910000000     0.0585462  
H399     H      0.626760000000     0.684120000000     0.658630000000     0.0535953  
H400     H      0.568260000000     0.598550000000     0.881420000000     0.0637081  
H401     H      0.633160000000     0.552860000000     0.897960000000     0.0504124  
H402     H      0.697330000000     0.596010000000     0.900630000000     0.0660478  
H403     H      0.543260000000     0.629180000000     0.929210000000     0.0703013  
H404     H      0.600830000000     0.681050000000     0.932800000000     0.0413205  
H405     H      0.654150000000     0.549570000000     0.959000000000     0.0536065  
H406     H      0.681700000000     0.622570000000     0.955860000000     0.0500133  
H407     H      0.566660000000     0.900350000000     0.754890000000     0.0644223  
H408     H      0.629590000000     0.952970000000     0.746550000000     0.0509303  
H409     H      0.695890000000     0.914990000000     0.724210000000     0.0598897  
H410     H      0.540360000000     0.880080000000     0.701210000000     0.0735147  
H411     H      0.604600000000     0.838190000000     0.678410000000     0.0378926  
H412     H      0.646800000000     0.969300000000     0.686650000000     0.0593957  
H413     H      0.672290000000     0.895550000000     0.668780000000     0.0482364  
H414     H      0.835140000000     0.645380000000     0.595750000000     0.0674784  
H415     H      0.895680000000     0.698350000000     0.613610000000     0.0496993  
H416     H      0.896930000000     0.723480000000     0.696120000000     0.0557298  
H417     H      0.837860000000     0.590650000000     0.617960000000     0.0852134  
H418     H      0.825580000000     0.610720000000     0.699610000000     0.0625309  
H419     H      0.944120000000     0.678070000000     0.641530000000     0.0575692  
H420     H      0.910280000000     0.670680000000     0.719440000000     0.0555356  
H421     H      0.871260000000     0.813410000000     0.998920000000     0.0629953  
H422     H      0.812630000000     0.870800000000     0.003360000000     0.0460396  
H423     H      0.841920000000     0.943350000000     0.992480000000     0.057337   
H424     H      0.890680000000     0.795700000000     0.940430000000     0.0736497  
H425     H      0.922310000000     0.867980000000     0.925410000000     0.0384231  
H426     H      0.792010000000     0.894330000000     0.948070000000     0.0531817  
H427     H      0.860490000000     0.930840000000     0.932220000000     0.0511259  
H428     H      0.906590000000     0.554900000000     0.880220000000     0.0668622  
H429     H      0.956500000000     0.619870000000     0.879880000000     0.0505137  
H430     H      0.922570000000     0.690170000000     0.878480000000     0.0607196  
H431     H      0.874140000000     0.543820000000     0.932530000000     0.0684306  
H432     H      0.827980000000     0.602910000000     0.919450000000     0.0378906  
H433     H      0.967610000000     0.647340000000     0.936450000000     0.0584989  
H434     H      0.898490000000     0.682310000000     0.937080000000     0.0516728  
H435     H      0.582000000000     0.864980000000     0.911960000000     0.073864   
H436     H      0.643190000000     0.929070000000     0.916840000000     0.0504674  
H437     H      0.664700000000     0.939970000000     0.002330000000     0.0553566  
H438     H      0.600880000000     0.810050000000     0.920140000000     0.084593   
H439     H      0.621910000000     0.825610000000     0.004270000000     0.0349366  
H440     H      0.697480000000     0.910800000000     0.927030000000     0.0542444  
H441     H      0.678510000000     0.883450000000     0.008050000000     0.0454829  
H442     H      0.822800000000     0.903720000000     0.664830000000     0.0655156  
H443     H      0.888370000000     0.845390000000     0.665390000000     0.0523961  
H444     H      0.955640000000     0.880150000000     0.694700000000     0.0591785  
H445     H      0.801910000000     0.919600000000     0.723260000000     0.0766739  
H446     H      0.870690000000     0.952810000000     0.745480000000     0.0384419  
H447     H      0.904710000000     0.824720000000     0.723830000000     0.0587027  
H448     H      0.928820000000     0.898150000000     0.748790000000     0.0484214  
N1       N      0.149970000000     0.157390000000     0.224730000000    -0.161045   
N2       N      0.086180000000     0.105770000000     0.179620000000    -0.157157   
N3       N      0.148570000000     0.145830000000     0.393690000000    -0.165721   
N4       N      0.097370000000     0.089040000000     0.449480000000    -0.158635   
N5       N      0.147160000000     0.364370000000     0.231550000000    -0.168709   
N6       N      0.091410000000     0.426670000000     0.189820000000    -0.157208   
N7       N      0.344990000000     0.177090000000     0.198520000000    -0.164684   
N8       N      0.394140000000     0.130710000000     0.128550000000    -0.153773   
N9       N      0.397310000000     0.400030000000     0.487590000000    -0.168077   
N10      N      0.339520000000     0.343350000000     0.439590000000    -0.159567   
N11      N      0.368390000000     0.146460000000     0.380570000000    -0.166959   
N12      N      0.421870000000     0.094420000000     0.439830000000    -0.157248   
N13      N      0.111170000000     0.394020000000     0.501990000000    -0.168692   
N14      N      0.149660000000     0.360260000000     0.416680000000    -0.156004   
N15      N      0.406720000000     0.430470000000     0.184980000000    -0.169051   
N16      N      0.349330000000     0.367920000000     0.223520000000    -0.156997   
N17      N      0.149970000000     0.157390000000     0.724730000000    -0.161048   
N18      N      0.086180000000     0.105770000000     0.679620000000    -0.157162   
N19      N      0.148570000000     0.145830000000     0.893690000000    -0.165742   
N20      N      0.097370000000     0.089040000000     0.949480000000    -0.158467   
N21      N      0.147160000000     0.364370000000     0.731550000000    -0.168709   
N22      N      0.091410000000     0.426670000000     0.689820000000    -0.15721    
N23      N      0.344990000000     0.177090000000     0.698520000000    -0.164682   
N24      N      0.394140000000     0.130710000000     0.628550000000    -0.153795   
N25      N      0.397310000000     0.400030000000     0.987590000000    -0.168431   
N26      N      0.339520000000     0.343350000000     0.939590000000    -0.15951    
N27      N      0.368390000000     0.146460000000     0.880570000000    -0.166972   
N28      N      0.421870000000     0.094420000000     0.939830000000    -0.157095   
N29      N      0.111170000000     0.394020000000     0.001990000000    -0.167945   
N30      N      0.149660000000     0.360260000000     0.916680000000    -0.156158   
N31      N      0.406720000000     0.430470000000     0.684980000000    -0.169054   
N32      N      0.349330000000     0.367920000000     0.723510000000    -0.156972   
N33      N      0.149970000000     0.657390000000     0.224730000000    -0.161044   
N34      N      0.086180000000     0.605770000000     0.179620000000    -0.157155   
N35      N      0.148570000000     0.645830000000     0.393690000000    -0.165744   
N36      N      0.097370000000     0.589040000000     0.449480000000    -0.158656   
N37      N      0.147160000000     0.864360000000     0.231550000000    -0.168712   
N38      N      0.091410000000     0.926670000000     0.189820000000    -0.157203   
N39      N      0.344990000000     0.677090000000     0.198520000000    -0.164709   
N40      N      0.394140000000     0.630710000000     0.128550000000    -0.153765   
N41      N      0.397310000000     0.900030000000     0.487590000000    -0.16807    
N42      N      0.339520000000     0.843350000000     0.439590000000    -0.159569   
N43      N      0.368390000000     0.646460000000     0.380570000000    -0.16696    
N44      N      0.421870000000     0.594420000000     0.439830000000    -0.157245   
N45      N      0.111170000000     0.894020000000     0.501990000000    -0.168662   
N46      N      0.149660000000     0.860260000000     0.416680000000    -0.155997   
N47      N      0.406720000000     0.930480000000     0.184980000000    -0.169066   
N48      N      0.349330000000     0.867920000000     0.223520000000    -0.156993   
N49      N      0.149970000000     0.657390000000     0.724730000000    -0.161048   
N50      N      0.086180000000     0.605770000000     0.679620000000    -0.157159   
N51      N      0.148570000000     0.645830000000     0.893690000000    -0.165766   
N52      N      0.097370000000     0.589040000000     0.949480000000    -0.158488   
N53      N      0.147160000000     0.864360000000     0.731550000000    -0.168713   
N54      N      0.091410000000     0.926670000000     0.689820000000    -0.157205   
N55      N      0.344990000000     0.677090000000     0.698520000000    -0.164708   
N56      N      0.394140000000     0.630710000000     0.628550000000    -0.153786   
N57      N      0.397310000000     0.900030000000     0.987590000000    -0.168424   
N58      N      0.339520000000     0.843350000000     0.939590000000    -0.159512   
N59      N      0.368390000000     0.646460000000     0.880570000000    -0.166973   
N60      N      0.421870000000     0.594420000000     0.939830000000    -0.157091   
N61      N      0.111170000000     0.894020000000     0.001990000000    -0.167915   
N62      N      0.149660000000     0.860260000000     0.916680000000    -0.156151   
N63      N      0.406720000000     0.930480000000     0.684980000000    -0.16907    
N64      N      0.349330000000     0.867920000000     0.723510000000    -0.156968   
N65      N      0.649970000000     0.157390000000     0.224730000000    -0.161045   
N66      N      0.586180000000     0.105770000000     0.179620000000    -0.157154   
N67      N      0.648570000000     0.145830000000     0.393690000000    -0.165751   
N68      N      0.597370000000     0.089040000000     0.449480000000    -0.158631   
N69      N      0.647160000000     0.364370000000     0.231550000000    -0.16868    
N70      N      0.591410000000     0.426670000000     0.189820000000    -0.157205   
N71      N      0.844990000000     0.177090000000     0.198520000000    -0.164687   
N72      N      0.894130000000     0.130710000000     0.128550000000    -0.153744   
N73      N      0.897310000000     0.400030000000     0.487590000000    -0.168054   
N74      N      0.839520000000     0.343350000000     0.439590000000    -0.159568   
N75      N      0.868390000000     0.146460000000     0.380570000000    -0.166965   
N76      N      0.921870000000     0.094420000000     0.439830000000    -0.157271   
N77      N      0.611170000000     0.394020000000     0.501990000000    -0.168692   
N78      N      0.649660000000     0.360260000000     0.416680000000    -0.155978   
N79      N      0.906710000000     0.430470000000     0.184980000000    -0.169073   
N80      N      0.849330000000     0.367920000000     0.223520000000    -0.156994   
N81      N      0.649970000000     0.157390000000     0.724730000000    -0.161049   
N82      N      0.586180000000     0.105770000000     0.679620000000    -0.157158   
N83      N      0.648570000000     0.145830000000     0.893690000000    -0.165773   
N84      N      0.597370000000     0.089040000000     0.949480000000    -0.158463   
N85      N      0.647160000000     0.364370000000     0.731550000000    -0.16868    
N86      N      0.591410000000     0.426670000000     0.689820000000    -0.157207   
N87      N      0.844990000000     0.177090000000     0.698520000000    -0.164686   
N88      N      0.894130000000     0.130710000000     0.628550000000    -0.153766   
N89      N      0.897310000000     0.400030000000     0.987590000000    -0.168408   
N90      N      0.839520000000     0.343350000000     0.939590000000    -0.159511   
N91      N      0.868390000000     0.146460000000     0.880570000000    -0.166979   
N92      N      0.921870000000     0.094420000000     0.939830000000    -0.157117   
N93      N      0.611170000000     0.394020000000     0.001990000000    -0.167944   
N94      N      0.649660000000     0.360260000000     0.916680000000    -0.156132   
N95      N      0.906710000000     0.430470000000     0.684980000000    -0.169077   
N96      N      0.849330000000     0.367920000000     0.723510000000    -0.156969   
N97      N      0.649970000000     0.657390000000     0.224730000000    -0.161045   
N98      N      0.586180000000     0.605770000000     0.179620000000    -0.157151   
N99      N      0.648570000000     0.645830000000     0.393690000000    -0.165774   
N100     N      0.597370000000     0.589040000000     0.449480000000    -0.158653   
N101     N      0.647160000000     0.864360000000     0.231550000000    -0.168683   
N102     N      0.591410000000     0.926670000000     0.189820000000    -0.1572     
N103     N      0.844990000000     0.677090000000     0.198520000000    -0.164712   
N104     N      0.894130000000     0.630710000000     0.128550000000    -0.153736   
N105     N      0.897310000000     0.900030000000     0.487590000000    -0.168047   
N106     N      0.839520000000     0.843350000000     0.439590000000    -0.159569   
N107     N      0.868390000000     0.646460000000     0.380570000000    -0.166966   
N108     N      0.921870000000     0.594420000000     0.439830000000    -0.157268   
N109     N      0.611170000000     0.894020000000     0.501990000000    -0.168662   
N110     N      0.649660000000     0.860260000000     0.416680000000    -0.15597    
N111     N      0.906710000000     0.930480000000     0.184980000000    -0.169089   
N112     N      0.849330000000     0.867920000000     0.223520000000    -0.15699    
N113     N      0.649970000000     0.657390000000     0.724730000000    -0.161048   
N114     N      0.586180000000     0.605770000000     0.679620000000    -0.157156   
N115     N      0.648570000000     0.645830000000     0.893690000000    -0.165796   
N116     N      0.597370000000     0.589040000000     0.949480000000    -0.158484   
N117     N      0.647160000000     0.864360000000     0.731550000000    -0.168684   
N118     N      0.591410000000     0.926670000000     0.689820000000    -0.157202   
N119     N      0.844990000000     0.677090000000     0.698520000000    -0.164711   
N120     N      0.894130000000     0.630710000000     0.628550000000    -0.153758   
N121     N      0.897310000000     0.900030000000     0.987590000000    -0.168401   
N122     N      0.839520000000     0.843350000000     0.939590000000    -0.159512   
N123     N      0.868390000000     0.646460000000     0.880570000000    -0.166979   
N124     N      0.921870000000     0.594420000000     0.939830000000    -0.157114   
N125     N      0.611170000000     0.894020000000     0.001990000000    -0.167915   
N126     N      0.649660000000     0.860260000000     0.916680000000    -0.156124   
N127     N      0.906710000000     0.930480000000     0.684980000000    -0.169092   
N128     N      0.849330000000     0.867920000000     0.723510000000    -0.156965   
O1       O      0.459800000000     0.415680000000     0.529730000000    -0.338991   
O2       O      0.042840000000     0.092530000000     0.505060000000    -0.35949    
O3       O      0.420960000000     0.044280000000     0.501840000000    -0.357957   
O4       O      0.098480000000     0.461410000000     0.535670000000    -0.3595     
O5       O      0.469970000000     0.097350000000     0.502850000000    -0.351141   
O6       O      0.046630000000     0.411800000000     0.538610000000    -0.335835   
O7       O      0.093590000000     0.041820000000     0.513880000000    -0.367398   
O8       O      0.406710000000     0.463930000000     0.529790000000    -0.359919   
O9       O      0.036730000000     0.428560000000     0.133820000000    -0.357663   
O10      O      0.460850000000     0.110710000000     0.100510000000    -0.362609   
O11      O      0.413670000000     0.481980000000     0.123840000000    -0.348714   
O12      O      0.084420000000     0.048360000000     0.126640000000    -0.368578   
O13      O      0.036690000000     0.102010000000     0.117740000000    -0.372716   
O14      O      0.462440000000     0.429430000000     0.130420000000    -0.365204   
O15      O      0.089420000000     0.477680000000     0.129080000000    -0.355776   
O16      O      0.406830000000     0.063020000000     0.096090000000    -0.355357   
O17      O      0.503220000000     0.509630000000     0.547500000000    -0.586859   
O18      O      0.290210000000     0.355520000000     0.271850000000    -0.370643   
O19      O      0.212620000000     0.168650000000     0.267280000000    -0.327051   
O20      O      0.340990000000     0.229620000000     0.258110000000    -0.362139   
O21      O      0.161610000000     0.301260000000     0.273240000000    -0.348738   
O22      O      0.290510000000     0.178170000000     0.255150000000    -0.337938   
O23      O      0.209750000000     0.354620000000     0.275290000000    -0.363044   
O24      O      0.162070000000     0.219740000000     0.269280000000    -0.343071   
O25      O      0.343210000000     0.306590000000     0.270710000000    -0.368512   
O26      O      0.209970000000     0.353770000000     0.369150000000    -0.352448   
O27      O      0.302020000000     0.162680000000     0.348590000000    -0.343936   
O28      O      0.338360000000     0.293920000000     0.377170000000    -0.367256   
O29      O      0.160930000000     0.212520000000     0.358990000000    -0.341727   
O30      O      0.212780000000     0.162570000000     0.356560000000    -0.347016   
O31      O      0.287770000000     0.345340000000     0.380240000000    -0.362006   
O32      O      0.161380000000     0.300380000000     0.368320000000    -0.348981   
O33      O      0.352780000000     0.213890000000     0.348530000000    -0.358135   
O34      O      0.254310000000     0.260080000000     0.338230000000    -0.593052   
O35      O      0.459800000000     0.415680000000     0.029730000000    -0.338934   
O36      O      0.042840000000     0.092530000000     0.005060000000    -0.358713   
O37      O      0.420960000000     0.044280000000     0.001840000000    -0.357189   
O38      O      0.098480000000     0.461410000000     0.035670000000    -0.359393   
O39      O      0.469970000000     0.097350000000     0.002850000000    -0.350392   
O40      O      0.046630000000     0.411800000000     0.038610000000    -0.335719   
O41      O      0.093590000000     0.041820000000     0.013890000000    -0.366639   
O42      O      0.406710000000     0.463930000000     0.029790000000    -0.359877   
O43      O      0.036730000000     0.428560000000     0.633820000000    -0.35766    
O44      O      0.460850000000     0.110710000000     0.600510000000    -0.362648   
O45      O      0.413670000000     0.481980000000     0.623840000000    -0.348728   
O46      O      0.084420000000     0.048360000000     0.626640000000    -0.368601   
O47      O      0.036690000000     0.102010000000     0.617740000000    -0.372755   
O48      O      0.462440000000     0.429430000000     0.630420000000    -0.365211   
O49      O      0.089420000000     0.477680000000     0.629080000000    -0.35578    
O50      O      0.406830000000     0.063020000000     0.596090000000    -0.355397   
O51      O      0.503220000000     0.509630000000     0.047500000000    -0.586785   
O52      O      0.290210000000     0.355520000000     0.771850000000    -0.370632   
O53      O      0.212620000000     0.168650000000     0.767280000000    -0.327043   
O54      O      0.340990000000     0.229620000000     0.758110000000    -0.362152   
O55      O      0.161610000000     0.301260000000     0.773250000000    -0.348746   
O56      O      0.290510000000     0.178170000000     0.755140000000    -0.337919   
O57      O      0.209750000000     0.354620000000     0.775290000000    -0.363035   
O58      O      0.162070000000     0.219740000000     0.769280000000    -0.343076   
O59      O      0.343210000000     0.306590000000     0.770710000000    -0.368501   
O60      O      0.209970000000     0.353770000000     0.869150000000    -0.352474   
O61      O      0.302020000000     0.162680000000     0.848590000000    -0.343952   
O62      O      0.338360000000     0.293920000000     0.877170000000    -0.367265   
O63      O      0.160930000000     0.212520000000     0.858990000000    -0.341753   
O64      O      0.212780000000     0.162570000000     0.856560000000    -0.347029   
O65      O      0.287770000000     0.345340000000     0.880240000000    -0.362018   
O66      O      0.161380000000     0.300380000000     0.868320000000    -0.349009   
O67      O      0.352780000000     0.213890000000     0.848530000000    -0.358145   
O68      O      0.254310000000     0.260080000000     0.838230000000    -0.59307    
O69      O      0.459800000000     0.915680000000     0.529730000000    -0.338982   
O70      O      0.042840000000     0.592530000000     0.505060000000    -0.359528   
O71      O      0.420960000000     0.544280000000     0.501840000000    -0.357948   
O72      O      0.098480000000     0.961420000000     0.535670000000    -0.359404   
O73      O      0.469970000000     0.597350000000     0.502850000000    -0.351136   
O74      O      0.046630000000     0.911800000000     0.538610000000    -0.335798   
O75      O      0.093590000000     0.541830000000     0.513880000000    -0.367492   
O76      O      0.406710000000     0.963930000000     0.529790000000    -0.35985    
O77      O      0.036730000000     0.928560000000     0.133820000000    -0.357664   
O78      O      0.460850000000     0.610710000000     0.100510000000    -0.362604   
O79      O      0.413670000000     0.981980000000     0.123840000000    -0.348653   
O80      O      0.084420000000     0.548360000000     0.126640000000    -0.368593   
O81      O      0.036690000000     0.602010000000     0.117740000000    -0.372716   
O82      O      0.462440000000     0.929430000000     0.130420000000    -0.365207   
O83      O      0.089420000000     0.977680000000     0.129080000000    -0.35574    
O84      O      0.406830000000     0.563020000000     0.096090000000    -0.355346   
O85      O      0.503220000000     0.009630000000     0.547500000000    -0.58689    
O86      O      0.290210000000     0.855520000000     0.271850000000    -0.370632   
O87      O      0.212620000000     0.668650000000     0.267280000000    -0.327051   
O88      O      0.340990000000     0.729620000000     0.258110000000    -0.362162   
O89      O      0.161610000000     0.801260000000     0.273240000000    -0.348828   
O90      O      0.290510000000     0.678180000000     0.255150000000    -0.338028   
O91      O      0.209750000000     0.854620000000     0.275290000000    -0.363033   
O92      O      0.162070000000     0.719740000000     0.269280000000    -0.343064   
O93      O      0.343210000000     0.806590000000     0.270710000000    -0.368511   
O94      O      0.209970000000     0.853780000000     0.369150000000    -0.352361   
O95      O      0.302020000000     0.662680000000     0.348590000000    -0.343941   
O96      O      0.338360000000     0.793920000000     0.377170000000    -0.367257   
O97      O      0.160930000000     0.712510000000     0.358990000000    -0.341796   
O98      O      0.212780000000     0.662570000000     0.356560000000    -0.347059   
O99      O      0.287770000000     0.845340000000     0.380240000000    -0.362003   
O100     O      0.161380000000     0.800380000000     0.368320000000    -0.348966   
O101     O      0.352780000000     0.713890000000     0.348530000000    -0.358137   
O102     O      0.254310000000     0.760080000000     0.338230000000    -0.593055   
O103     O      0.459800000000     0.915680000000     0.029730000000    -0.338925   
O104     O      0.042840000000     0.592530000000     0.005060000000    -0.358751   
O105     O      0.420960000000     0.544280000000     0.001840000000    -0.35718    
O106     O      0.098480000000     0.961420000000     0.035670000000    -0.359297   
O107     O      0.469970000000     0.597350000000     0.002850000000    -0.350388   
O108     O      0.046630000000     0.911800000000     0.038610000000    -0.335682   
O109     O      0.093590000000     0.541830000000     0.013890000000    -0.366732   
O110     O      0.406710000000     0.963930000000     0.029790000000    -0.359808   
O111     O      0.036730000000     0.928560000000     0.633820000000    -0.357662   
O112     O      0.460850000000     0.610710000000     0.600510000000    -0.362643   
O113     O      0.413670000000     0.981980000000     0.623840000000    -0.348668   
O114     O      0.084420000000     0.548360000000     0.626640000000    -0.368616   
O115     O      0.036690000000     0.602010000000     0.617740000000    -0.372755   
O116     O      0.462440000000     0.929430000000     0.630420000000    -0.365215   
O117     O      0.089420000000     0.977680000000     0.629080000000    -0.355744   
O118     O      0.406830000000     0.563020000000     0.596090000000    -0.355386   
O119     O      0.503220000000     0.009630000000     0.047500000000    -0.586815   
O120     O      0.290210000000     0.855520000000     0.771850000000    -0.370621   
O121     O      0.212620000000     0.668650000000     0.767280000000    -0.327043   
O122     O      0.340990000000     0.729620000000     0.758110000000    -0.362174   
O123     O      0.161610000000     0.801260000000     0.773250000000    -0.348837   
O124     O      0.290510000000     0.678180000000     0.755140000000    -0.338009   
O125     O      0.209750000000     0.854620000000     0.775290000000    -0.363025   
O126     O      0.162070000000     0.719740000000     0.769280000000    -0.343069   
O127     O      0.343210000000     0.806590000000     0.770710000000    -0.368499   
O128     O      0.209970000000     0.853780000000     0.869150000000    -0.352387   
O129     O      0.302020000000     0.662680000000     0.848590000000    -0.343957   
O130     O      0.338360000000     0.793920000000     0.877170000000    -0.367266   
O131     O      0.160930000000     0.712510000000     0.858990000000    -0.341821   
O132     O      0.212780000000     0.662570000000     0.856560000000    -0.347072   
O133     O      0.287770000000     0.845340000000     0.880240000000    -0.362015   
O134     O      0.161380000000     0.800380000000     0.868320000000    -0.348994   
O135     O      0.352780000000     0.713890000000     0.848530000000    -0.358147   
O136     O      0.254310000000     0.760080000000     0.838230000000    -0.593074   
O137     O      0.959800000000     0.415680000000     0.529730000000    -0.338919   
O138     O      0.542840000000     0.092530000000     0.505060000000    -0.35948    
O139     O      0.920970000000     0.044280000000     0.501840000000    -0.358032   
O140     O      0.598480000000     0.461410000000     0.535670000000    -0.3595     
O141     O      0.969970000000     0.097350000000     0.502850000000    -0.351105   
O142     O      0.546630000000     0.411800000000     0.538610000000    -0.335836   
O143     O      0.593590000000     0.041820000000     0.513880000000    -0.367396   
O144     O      0.906700000000     0.463930000000     0.529790000000    -0.359842   
O145     O      0.536730000000     0.428560000000     0.133820000000    -0.357644   
O146     O      0.960850000000     0.110710000000     0.100510000000    -0.36256    
O147     O      0.913670000000     0.481980000000     0.123840000000    -0.348758   
O148     O      0.584420000000     0.048360000000     0.126640000000    -0.368576   
O149     O      0.536690000000     0.102010000000     0.117740000000    -0.372705   
O150     O      0.962430000000     0.429430000000     0.130420000000    -0.365136   
O151     O      0.589420000000     0.477680000000     0.129080000000    -0.355775   
O152     O      0.906840000000     0.063020000000     0.096090000000    -0.355429   
O153     O      0.003220000000     0.509630000000     0.547500000000    -0.586879   
O154     O      0.790210000000     0.355520000000     0.271850000000    -0.370643   
O155     O      0.712620000000     0.168650000000     0.267280000000    -0.32705    
O156     O      0.840990000000     0.229620000000     0.258110000000    -0.362136   
O157     O      0.661610000000     0.301260000000     0.273240000000    -0.348724   
O158     O      0.790510000000     0.178170000000     0.255150000000    -0.337933   
O159     O      0.709750000000     0.354620000000     0.275290000000    -0.363122   
O160     O      0.662070000000     0.219740000000     0.269280000000    -0.343071   
O161     O      0.843210000000     0.306590000000     0.270710000000    -0.36851    
O162     O      0.709970000000     0.353770000000     0.369150000000    -0.352525   
O163     O      0.802030000000     0.162680000000     0.348590000000    -0.344006   
O164     O      0.838360000000     0.293920000000     0.377170000000    -0.367254   
O165     O      0.660930000000     0.212520000000     0.358990000000    -0.341745   
O166     O      0.712780000000     0.162570000000     0.356560000000    -0.346936   
O167     O      0.787770000000     0.345340000000     0.380240000000    -0.362006   
O168     O      0.661380000000     0.300380000000     0.368320000000    -0.348965   
O169     O      0.852780000000     0.213890000000     0.348530000000    -0.35817    
O170     O      0.754310000000     0.260080000000     0.338230000000    -0.593053   
O171     O      0.959800000000     0.415680000000     0.029730000000    -0.338862   
O172     O      0.542840000000     0.092530000000     0.005060000000    -0.358703   
O173     O      0.920970000000     0.044280000000     0.001840000000    -0.357264   
O174     O      0.598480000000     0.461410000000     0.035670000000    -0.359394   
O175     O      0.969970000000     0.097350000000     0.002850000000    -0.350356   
O176     O      0.546630000000     0.411800000000     0.038610000000    -0.33572    
O177     O      0.593590000000     0.041820000000     0.013890000000    -0.366637   
O178     O      0.906700000000     0.463930000000     0.029790000000    -0.3598     
O179     O      0.536730000000     0.428560000000     0.633820000000    -0.357642   
O180     O      0.960850000000     0.110710000000     0.600510000000    -0.3626     
O181     O      0.913670000000     0.481980000000     0.623840000000    -0.348773   
O182     O      0.584420000000     0.048360000000     0.626640000000    -0.368599   
O183     O      0.536690000000     0.102010000000     0.617740000000    -0.372744   
O184     O      0.962430000000     0.429430000000     0.630420000000    -0.365144   
O185     O      0.589420000000     0.477680000000     0.629080000000    -0.355779   
O186     O      0.906840000000     0.063020000000     0.596090000000    -0.355469   
O187     O      0.003220000000     0.509630000000     0.047500000000    -0.586805   
O188     O      0.790210000000     0.355520000000     0.771850000000    -0.370632   
O189     O      0.712620000000     0.168650000000     0.767280000000    -0.327042   
O190     O      0.840990000000     0.229620000000     0.758110000000    -0.362149   
O191     O      0.661610000000     0.301260000000     0.773250000000    -0.348733   
O192     O      0.790510000000     0.178170000000     0.755140000000    -0.337914   
O193     O      0.709750000000     0.354620000000     0.775290000000    -0.363113   
O194     O      0.662070000000     0.219740000000     0.769280000000    -0.343076   
O195     O      0.843210000000     0.306590000000     0.770710000000    -0.368499   
O196     O      0.709970000000     0.353770000000     0.869150000000    -0.352551   
O197     O      0.802030000000     0.162680000000     0.848590000000    -0.344022   
O198     O      0.838360000000     0.293920000000     0.877170000000    -0.367264   
O199     O      0.660930000000     0.212520000000     0.858990000000    -0.34177    
O200     O      0.712780000000     0.162570000000     0.856560000000    -0.346949   
O201     O      0.787770000000     0.345340000000     0.880240000000    -0.362019   
O202     O      0.661380000000     0.300380000000     0.868320000000    -0.348994   
O203     O      0.852780000000     0.213890000000     0.848530000000    -0.35818    
O204     O      0.754310000000     0.260080000000     0.838230000000    -0.593071   
O205     O      0.959800000000     0.915680000000     0.529730000000    -0.33891    
O206     O      0.542840000000     0.592530000000     0.505060000000    -0.359518   
O207     O      0.920970000000     0.544280000000     0.501840000000    -0.358023   
O208     O      0.598480000000     0.961420000000     0.535670000000    -0.359404   
O209     O      0.969970000000     0.597350000000     0.502850000000    -0.3511     
O210     O      0.546630000000     0.911800000000     0.538610000000    -0.335799   
O211     O      0.593590000000     0.541830000000     0.513880000000    -0.36749    
O212     O      0.906700000000     0.963930000000     0.529790000000    -0.359773   
O213     O      0.536730000000     0.928560000000     0.133820000000    -0.357646   
O214     O      0.960850000000     0.610710000000     0.100510000000    -0.362556   
O215     O      0.913670000000     0.981980000000     0.123840000000    -0.348698   
O216     O      0.584420000000     0.548360000000     0.126640000000    -0.368591   
O217     O      0.536690000000     0.602010000000     0.117740000000    -0.372705   
O218     O      0.962430000000     0.929430000000     0.130420000000    -0.365139   
O219     O      0.589420000000     0.977680000000     0.129080000000    -0.355738   
O220     O      0.906840000000     0.563020000000     0.096090000000    -0.355418   
O221     O      0.003220000000     0.009630000000     0.547500000000    -0.58691    
O222     O      0.790210000000     0.855520000000     0.271850000000    -0.370631   
O223     O      0.712620000000     0.668650000000     0.267280000000    -0.32705    
O224     O      0.840990000000     0.729620000000     0.258110000000    -0.362159   
O225     O      0.661610000000     0.801260000000     0.273240000000    -0.348815   
O226     O      0.790510000000     0.678180000000     0.255150000000    -0.338024   
O227     O      0.709750000000     0.854620000000     0.275290000000    -0.363111   
O228     O      0.662070000000     0.719740000000     0.269280000000    -0.343064   
O229     O      0.843210000000     0.806590000000     0.270710000000    -0.368509   
O230     O      0.709970000000     0.853780000000     0.369150000000    -0.352438   
O231     O      0.802030000000     0.662680000000     0.348590000000    -0.344011   
O232     O      0.838360000000     0.793920000000     0.377170000000    -0.367255   
O233     O      0.660930000000     0.712510000000     0.358990000000    -0.341814   
O234     O      0.712780000000     0.662570000000     0.356560000000    -0.346979   
O235     O      0.787770000000     0.845340000000     0.380240000000    -0.362003   
O236     O      0.661380000000     0.800380000000     0.368320000000    -0.34895    
O237     O      0.852780000000     0.713890000000     0.348530000000    -0.358171   
O238     O      0.754310000000     0.760080000000     0.338230000000    -0.593057   
O239     O      0.959800000000     0.915680000000     0.029730000000    -0.338853   
O240     O      0.542840000000     0.592530000000     0.005060000000    -0.358741   
O241     O      0.920970000000     0.544280000000     0.001840000000    -0.357255   
O242     O      0.598480000000     0.961420000000     0.035670000000    -0.359297   
O243     O      0.969970000000     0.597350000000     0.002850000000    -0.350352   
O244     O      0.546630000000     0.911800000000     0.038610000000    -0.335683   
O245     O      0.593590000000     0.541830000000     0.013890000000    -0.366731   
O246     O      0.906700000000     0.963930000000     0.029790000000    -0.359731   
O247     O      0.536730000000     0.928560000000     0.633820000000    -0.357643   
O248     O      0.960850000000     0.610710000000     0.600510000000    -0.362595   
O249     O      0.913670000000     0.981980000000     0.623840000000    -0.348713   
O250     O      0.584420000000     0.548360000000     0.626640000000    -0.368614   
O251     O      0.536690000000     0.602010000000     0.617740000000    -0.372744   
O252     O      0.962430000000     0.929430000000     0.630420000000    -0.365147   
O253     O      0.589420000000     0.977680000000     0.629080000000    -0.355742   
O254     O      0.906840000000     0.563020000000     0.596090000000    -0.355458   
O255     O      0.003220000000     0.009630000000     0.047500000000    -0.586835   
O256     O      0.790210000000     0.855520000000     0.771850000000    -0.37062    
O257     O      0.712620000000     0.668650000000     0.767280000000    -0.327042   
O258     O      0.840990000000     0.729620000000     0.758110000000    -0.362171   
O259     O      0.661610000000     0.801260000000     0.773250000000    -0.348823   
O260     O      0.790510000000     0.678180000000     0.755140000000    -0.338005   
O261     O      0.709750000000     0.854620000000     0.775290000000    -0.363102   
O262     O      0.662070000000     0.719740000000     0.769280000000    -0.343069   
O263     O      0.843210000000     0.806590000000     0.770710000000    -0.368498   
O264     O      0.709970000000     0.853780000000     0.869150000000    -0.352464   
O265     O      0.802030000000     0.662680000000     0.848590000000    -0.344027   
O266     O      0.838360000000     0.793920000000     0.877170000000    -0.367265   
O267     O      0.660930000000     0.712510000000     0.858990000000    -0.341839   
O268     O      0.712780000000     0.662570000000     0.856560000000    -0.346992   
O269     O      0.787770000000     0.845340000000     0.880240000000    -0.362015   
O270     O      0.661380000000     0.800380000000     0.868320000000    -0.348979   
O271     O      0.852780000000     0.713890000000     0.848530000000    -0.358182   
O272     O      0.754310000000     0.760080000000     0.838230000000    -0.593075   


