data_structure

_audit_creation_method RASPA-1.0
_audit_creation_date 2023-5-19
_audit_author_name 'Poobodin Mano'

_cell_length_a    30.5458
_cell_length_b    31.1338
_cell_length_c    28.7107
_cell_angle_alpha 90
_cell_angle_beta  90
_cell_angle_gamma 90
_cell_volume      27304.1

_symmetry_cell_setting          triclinic
_symmetry_space_group_name_Hall 'P 1'
_symmetry_space_group_name_H-M  'P 1'
_symmetry_Int_Tables_number     1

_symmetry_equiv_pos_as_xyz 'x,y,z'

loop_
_atom_site_label
_atom_site_type_symbol
_atom_site_fract_x
_atom_site_fract_y
_atom_site_fract_z
_atom_site_charge
Br1      Br     0.077470000000     0.210160000000     0.207500000000    -0.190985   
Br2      Br     0.191630000000     0.058780000000     0.481310000000    -0.163297   
Br3      Br     0.188420000000     0.460320000000     0.119970000000    -0.185611   
Br4      Br     0.405950000000     0.228340000000     0.164860000000    -0.178041   
Br5      Br     0.470180000000     0.319200000000     0.464180000000    -0.2009     
Br6      Br     0.329920000000     0.033380000000     0.452560000000    -0.187392   
Br7      Br     0.191870000000     0.443290000000     0.478590000000    -0.160686   
Br8      Br     0.446060000000     0.312960000000     0.240600000000    -0.178347   
Br9      Br     0.077470000000     0.210160000000     0.707500000000    -0.190949   
Br10     Br     0.191630000000     0.058780000000     0.981310000000    -0.163019   
Br11     Br     0.188420000000     0.460320000000     0.619970000000    -0.185387   
Br12     Br     0.405950000000     0.228340000000     0.664860000000    -0.177914   
Br13     Br     0.470180000000     0.319200000000     0.964180000000    -0.200678   
Br14     Br     0.329920000000     0.033380000000     0.952560000000    -0.187215   
Br15     Br     0.191870000000     0.443290000000     0.978590000000    -0.16041    
Br16     Br     0.446060000000     0.312960000000     0.740600000000    -0.178357   
Br17     Br     0.077470000000     0.710160000000     0.207500000000    -0.190983   
Br18     Br     0.191630000000     0.558780000000     0.481310000000    -0.163335   
Br19     Br     0.188420000000     0.960320000000     0.119970000000    -0.185656   
Br20     Br     0.405950000000     0.728340000000     0.164860000000    -0.17803    
Br21     Br     0.470180000000     0.819200000000     0.464180000000    -0.200897   
Br22     Br     0.329920000000     0.533380000000     0.452560000000    -0.187445   
Br23     Br     0.191870000000     0.943290000000     0.478590000000    -0.160725   
Br24     Br     0.446060000000     0.812960000000     0.240600000000    -0.178338   
Br25     Br     0.077470000000     0.710160000000     0.707500000000    -0.190947   
Br26     Br     0.191630000000     0.558780000000     0.981310000000    -0.163058   
Br27     Br     0.188420000000     0.960320000000     0.619970000000    -0.185433   
Br28     Br     0.405950000000     0.728340000000     0.664860000000    -0.177904   
Br29     Br     0.470180000000     0.819200000000     0.964180000000    -0.200675   
Br30     Br     0.329920000000     0.533380000000     0.952560000000    -0.187268   
Br31     Br     0.191870000000     0.943290000000     0.978590000000    -0.16045    
Br32     Br     0.446060000000     0.812960000000     0.740600000000    -0.178348   
Br33     Br     0.577470000000     0.210160000000     0.207500000000    -0.190933   
Br34     Br     0.691630000000     0.058780000000     0.481310000000    -0.163291   
Br35     Br     0.688420000000     0.460320000000     0.119970000000    -0.185611   
Br36     Br     0.905950000000     0.228340000000     0.164860000000    -0.178012   
Br37     Br     0.970180000000     0.319200000000     0.464180000000    -0.200817   
Br38     Br     0.829920000000     0.033380000000     0.452560000000    -0.187391   
Br39     Br     0.691870000000     0.443290000000     0.478590000000    -0.160684   
Br40     Br     0.946060000000     0.312960000000     0.240600000000    -0.178285   
Br41     Br     0.577470000000     0.210160000000     0.707500000000    -0.190897   
Br42     Br     0.691630000000     0.058780000000     0.981310000000    -0.163013   
Br43     Br     0.688420000000     0.460320000000     0.619970000000    -0.185388   
Br44     Br     0.905950000000     0.228340000000     0.664860000000    -0.177886   
Br45     Br     0.970180000000     0.319200000000     0.964180000000    -0.200595   
Br46     Br     0.829920000000     0.033380000000     0.952560000000    -0.187214   
Br47     Br     0.691870000000     0.443290000000     0.978590000000    -0.160408   
Br48     Br     0.946060000000     0.312960000000     0.740600000000    -0.178295   
Br49     Br     0.577470000000     0.710160000000     0.207500000000    -0.190931   
Br50     Br     0.691630000000     0.558780000000     0.481310000000    -0.163329   
Br51     Br     0.688420000000     0.960320000000     0.119970000000    -0.185657   
Br52     Br     0.905950000000     0.728340000000     0.164860000000    -0.178002   
Br53     Br     0.970180000000     0.819200000000     0.464180000000    -0.200814   
Br54     Br     0.829920000000     0.533380000000     0.452560000000    -0.187445   
Br55     Br     0.691870000000     0.943290000000     0.478590000000    -0.160723   
Br56     Br     0.946060000000     0.812960000000     0.240600000000    -0.178276   
Br57     Br     0.577470000000     0.710160000000     0.707500000000    -0.190895   
Br58     Br     0.691630000000     0.558780000000     0.981310000000    -0.163052   
Br59     Br     0.688420000000     0.960320000000     0.619970000000    -0.185433   
Br60     Br     0.905950000000     0.728340000000     0.664860000000    -0.177875   
Br61     Br     0.970180000000     0.819200000000     0.964180000000    -0.200592   
Br62     Br     0.829920000000     0.533380000000     0.952560000000    -0.187268   
Br63     Br     0.691870000000     0.943290000000     0.978590000000    -0.160448   
Br64     Br     0.946060000000     0.812960000000     0.740600000000    -0.178286   
C1       C      0.431650000000     0.416470000000     0.481710000000     0.406366   
C2       C      0.086640000000     0.077670000000     0.479310000000     0.405954   
C3       C      0.428660000000     0.070590000000     0.473910000000     0.407344   
C4       C      0.087490000000     0.421520000000     0.479850000000     0.40449    
C5       C      0.090070000000     0.422510000000     0.098320000000     0.412947   
C6       C      0.425860000000     0.076870000000     0.093680000000     0.401804   
C7       C      0.432960000000     0.422460000000     0.104610000000     0.401305   
C8       C      0.083440000000     0.077400000000     0.098640000000     0.401824   
C9       C      0.340890000000     0.329190000000     0.236520000000     0.412257   
C10      C      0.175830000000     0.172340000000     0.229460000000     0.412369   
C11      C      0.332210000000     0.173570000000     0.221990000000     0.409986   
C12      C      0.182250000000     0.327710000000     0.228990000000     0.40387    
C13      C      0.182560000000     0.323680000000     0.353660000000     0.396361   
C14      C      0.333510000000     0.169380000000     0.348340000000     0.39615    
C15      C      0.334200000000     0.320460000000     0.355730000000     0.397087   
C16      C      0.181710000000     0.175150000000     0.352840000000     0.395248   
C17      C      0.146220000000     0.088590000000     0.146080000000     0.0339147  
C18      C      0.087640000000     0.137560000000     0.149650000000     0.00165712 
C19      C      0.168780000000     0.112460000000     0.179310000000     0.0425911  
C20      C      0.109900000000     0.161670000000     0.183360000000     0.156548   
C21      C      0.115910000000     0.161080000000     0.394870000000     0.033465   
C22      C      0.178890000000     0.119820000000     0.409910000000     0.00197696 
C23      C      0.092270000000     0.136120000000     0.426550000000     0.0399336  
C24      C      0.155880000000     0.095730000000     0.443040000000     0.155034   
C25      C      0.119480000000     0.338980000000     0.181760000000     0.0341755  
C26      C      0.178190000000     0.387850000000     0.178030000000     0.00173639 
C27      C      0.096990000000     0.362840000000     0.148570000000     0.042904   
C28      C      0.155980000000     0.411950000000     0.144330000000     0.157108   
C29      C      0.365440000000     0.085160000000     0.145600000000     0.0352341  
C30      C      0.413050000000     0.143270000000     0.132240000000     0.00235215 
C31      C      0.342120000000     0.109920000000     0.177730000000     0.0403926  
C32      C      0.389340000000     0.168590000000     0.163610000000     0.157614   
C33      C      0.344150000000     0.382490000000     0.402940000000     0.0376655  
C34      C      0.395500000000     0.326310000000     0.406790000000     0.00317307 
C35      C      0.369070000000     0.406330000000     0.434290000000     0.0378323  
C36      C      0.420480000000     0.349770000000     0.438960000000     0.15715    
C37      C      0.397970000000     0.155980000000     0.392640000000     0.0335136  
C38      C      0.338840000000     0.107770000000     0.397230000000     0.00119074 
C39      C      0.421570000000     0.130560000000     0.423720000000     0.0393358  
C40      C      0.362070000000     0.082230000000     0.428980000000     0.154937   
C41      C      0.116750000000     0.338070000000     0.395530000000     0.0363668  
C42      C      0.179430000000     0.380080000000     0.409460000000     0.0023327  
C43      C      0.093150000000     0.363150000000     0.427110000000     0.0381804  
C44      C      0.156370000000     0.404580000000     0.442190000000     0.154727   
C45      C      0.368130000000     0.409390000000     0.148350000000     0.0343136  
C46      C      0.431970000000     0.369790000000     0.164810000000     0.00416035 
C47      C      0.345490000000     0.386160000000     0.182140000000     0.0423803  
C48      C      0.409810000000     0.347290000000     0.199920000000     0.163717   
C49      C      0.431650000000     0.416470000000     0.981710000000     0.406301   
C50      C      0.086640000000     0.077670000000     0.979310000000     0.405901   
C51      C      0.428660000000     0.070590000000     0.973910000000     0.407276   
C52      C      0.087490000000     0.421520000000     0.979850000000     0.404442   
C53      C      0.090070000000     0.422510000000     0.598320000000     0.412997   
C54      C      0.425860000000     0.076870000000     0.593680000000     0.401889   
C55      C      0.432960000000     0.422460000000     0.604610000000     0.401385   
C56      C      0.083440000000     0.077400000000     0.598640000000     0.401875   
C57      C      0.340890000000     0.329190000000     0.736520000000     0.412265   
C58      C      0.175830000000     0.172340000000     0.729460000000     0.41238    
C59      C      0.332210000000     0.173570000000     0.721990000000     0.410029   
C60      C      0.182250000000     0.327710000000     0.728990000000     0.403882   
C61      C      0.182560000000     0.323680000000     0.853660000000     0.396374   
C62      C      0.333510000000     0.169380000000     0.848340000000     0.396159   
C63      C      0.334200000000     0.320460000000     0.855730000000     0.397136   
C64      C      0.181710000000     0.175150000000     0.852840000000     0.395261   
C65      C      0.146220000000     0.088590000000     0.646080000000     0.0339525  
C66      C      0.087640000000     0.137560000000     0.649650000000     0.00169459 
C67      C      0.168780000000     0.112460000000     0.679310000000     0.0426098  
C68      C      0.109900000000     0.161670000000     0.683360000000     0.156564   
C69      C      0.115910000000     0.161080000000     0.894870000000     0.0334861  
C70      C      0.178890000000     0.119820000000     0.909910000000     0.00200349 
C71      C      0.092270000000     0.136120000000     0.926550000000     0.0399631  
C72      C      0.155880000000     0.095730000000     0.943040000000     0.155039   
C73      C      0.119480000000     0.338980000000     0.681760000000     0.0341909  
C74      C      0.178190000000     0.387850000000     0.678030000000     0.00175721 
C75      C      0.096990000000     0.362840000000     0.648570000000     0.0429488  
C76      C      0.155980000000     0.411950000000     0.644330000000     0.157131   
C77      C      0.365440000000     0.085160000000     0.645600000000     0.0352698  
C78      C      0.413050000000     0.143270000000     0.632240000000     0.00238785 
C79      C      0.342120000000     0.109920000000     0.677730000000     0.0404124  
C80      C      0.389340000000     0.168590000000     0.663610000000     0.157634   
C81      C      0.344150000000     0.382490000000     0.902940000000     0.037686   
C82      C      0.395500000000     0.326310000000     0.906790000000     0.00322088 
C83      C      0.369070000000     0.406330000000     0.934290000000     0.0378657  
C84      C      0.420480000000     0.349770000000     0.938970000000     0.157176   
C85      C      0.397970000000     0.155980000000     0.892640000000     0.0335389  
C86      C      0.338840000000     0.107770000000     0.897230000000     0.00118942 
C87      C      0.421570000000     0.130560000000     0.923720000000     0.0393608  
C88      C      0.362070000000     0.082230000000     0.928970000000     0.154939   
C89      C      0.116750000000     0.338070000000     0.895540000000     0.0363853  
C90      C      0.179430000000     0.380080000000     0.909460000000     0.00235838 
C91      C      0.093150000000     0.363150000000     0.927110000000     0.0382061  
C92      C      0.156370000000     0.404580000000     0.942190000000     0.154735   
C93      C      0.368130000000     0.409390000000     0.648350000000     0.0343356  
C94      C      0.431970000000     0.369790000000     0.664810000000     0.0041857  
C95      C      0.345490000000     0.386160000000     0.682150000000     0.0424284  
C96      C      0.409810000000     0.347290000000     0.699920000000     0.163727   
C97      C      0.431650000000     0.916470000000     0.481710000000     0.406362   
C98      C      0.086640000000     0.577670000000     0.479310000000     0.405874   
C99      C      0.428660000000     0.570590000000     0.473910000000     0.407347   
C100     C      0.087490000000     0.921520000000     0.479850000000     0.404487   
C101     C      0.090070000000     0.922510000000     0.098320000000     0.412943   
C102     C      0.425860000000     0.576860000000     0.093680000000     0.401841   
C103     C      0.432960000000     0.922460000000     0.104610000000     0.401301   
C104     C      0.083440000000     0.577400000000     0.098640000000     0.401872   
C105     C      0.340890000000     0.829190000000     0.236520000000     0.412137   
C106     C      0.175830000000     0.672350000000     0.229460000000     0.412404   
C107     C      0.332210000000     0.673570000000     0.221990000000     0.409931   
C108     C      0.182250000000     0.827710000000     0.228990000000     0.403871   
C109     C      0.182560000000     0.823680000000     0.353660000000     0.396359   
C110     C      0.333510000000     0.669380000000     0.348340000000     0.39614    
C111     C      0.334200000000     0.820460000000     0.355730000000     0.397094   
C112     C      0.181710000000     0.675150000000     0.352840000000     0.395119   
C113     C      0.146220000000     0.588590000000     0.146080000000     0.0339456  
C114     C      0.087640000000     0.637560000000     0.149650000000     0.00162636 
C115     C      0.168780000000     0.612460000000     0.179310000000     0.0425733  
C116     C      0.109900000000     0.661670000000     0.183360000000     0.156548   
C117     C      0.115910000000     0.661080000000     0.394870000000     0.0334573  
C118     C      0.178890000000     0.619820000000     0.409910000000     0.00197028 
C119     C      0.092270000000     0.636120000000     0.426550000000     0.0399322  
C120     C      0.155880000000     0.595730000000     0.443040000000     0.155032   
C121     C      0.119480000000     0.838980000000     0.181760000000     0.0341778  
C122     C      0.178190000000     0.887840000000     0.178030000000     0.00180524 
C123     C      0.096990000000     0.862840000000     0.148570000000     0.0428974  
C124     C      0.155980000000     0.911950000000     0.144330000000     0.157076   
C125     C      0.365440000000     0.585160000000     0.145600000000     0.035198   
C126     C      0.413050000000     0.643270000000     0.132240000000     0.00236767 
C127     C      0.342120000000     0.609920000000     0.177730000000     0.0404429  
C128     C      0.389340000000     0.668590000000     0.163610000000     0.157576   
C129     C      0.344150000000     0.882490000000     0.402940000000     0.0376615  
C130     C      0.395500000000     0.826310000000     0.406790000000     0.003173   
C131     C      0.369070000000     0.906330000000     0.434290000000     0.0378292  
C132     C      0.420480000000     0.849770000000     0.438960000000     0.157148   
C133     C      0.397970000000     0.655980000000     0.392640000000     0.0335119  
C134     C      0.338840000000     0.607770000000     0.397230000000     0.00118666 
C135     C      0.421570000000     0.630560000000     0.423720000000     0.0393336  
C136     C      0.362070000000     0.582230000000     0.428980000000     0.154938   
C137     C      0.116750000000     0.838070000000     0.395530000000     0.036366   
C138     C      0.179430000000     0.880080000000     0.409460000000     0.00232908 
C139     C      0.093150000000     0.863150000000     0.427110000000     0.0381786  
C140     C      0.156370000000     0.904580000000     0.442190000000     0.154726   
C141     C      0.368130000000     0.909390000000     0.148350000000     0.0343096  
C142     C      0.431970000000     0.869790000000     0.164810000000     0.0041419  
C143     C      0.345490000000     0.886160000000     0.182140000000     0.04237    
C144     C      0.409810000000     0.847300000000     0.199920000000     0.163705   
C145     C      0.431650000000     0.916470000000     0.981710000000     0.406298   
C146     C      0.086640000000     0.577670000000     0.979310000000     0.405821   
C147     C      0.428660000000     0.570590000000     0.973910000000     0.407279   
C148     C      0.087490000000     0.921520000000     0.979850000000     0.404439   
C149     C      0.090070000000     0.922510000000     0.598320000000     0.412993   
C150     C      0.425860000000     0.576860000000     0.593680000000     0.401926   
C151     C      0.432960000000     0.922460000000     0.604610000000     0.401381   
C152     C      0.083440000000     0.577400000000     0.598640000000     0.401923   
C153     C      0.340890000000     0.829190000000     0.736520000000     0.412146   
C154     C      0.175830000000     0.672350000000     0.729460000000     0.412415   
C155     C      0.332210000000     0.673570000000     0.721990000000     0.409974   
C156     C      0.182250000000     0.827710000000     0.728990000000     0.403883   
C157     C      0.182560000000     0.823680000000     0.853660000000     0.396372   
C158     C      0.333510000000     0.669380000000     0.848340000000     0.396149   
C159     C      0.334200000000     0.820460000000     0.855730000000     0.397142   
C160     C      0.181710000000     0.675150000000     0.852840000000     0.395132   
C161     C      0.146220000000     0.588590000000     0.646080000000     0.0339834  
C162     C      0.087640000000     0.637560000000     0.649650000000     0.00166383 
C163     C      0.168780000000     0.612460000000     0.679310000000     0.042592   
C164     C      0.109900000000     0.661670000000     0.683360000000     0.156563   
C165     C      0.115910000000     0.661080000000     0.894870000000     0.0334783  
C166     C      0.178890000000     0.619820000000     0.909910000000     0.00199681 
C167     C      0.092270000000     0.636120000000     0.926550000000     0.0399617  
C168     C      0.155880000000     0.595730000000     0.943040000000     0.155038   
C169     C      0.119480000000     0.838980000000     0.681760000000     0.0341932  
C170     C      0.178190000000     0.887840000000     0.678030000000     0.00182608 
C171     C      0.096990000000     0.862840000000     0.648570000000     0.0429422  
C172     C      0.155980000000     0.911950000000     0.644330000000     0.157099   
C173     C      0.365440000000     0.585160000000     0.645600000000     0.0352337  
C174     C      0.413050000000     0.643270000000     0.632240000000     0.00240337 
C175     C      0.342120000000     0.609920000000     0.677730000000     0.0404627  
C176     C      0.389340000000     0.668590000000     0.663610000000     0.157596   
C177     C      0.344150000000     0.882490000000     0.902940000000     0.0376821  
C178     C      0.395500000000     0.826310000000     0.906790000000     0.00322082 
C179     C      0.369070000000     0.906330000000     0.934290000000     0.0378627  
C180     C      0.420480000000     0.849770000000     0.938970000000     0.157175   
C181     C      0.397970000000     0.655980000000     0.892640000000     0.0335372  
C182     C      0.338840000000     0.607770000000     0.897230000000     0.00118534 
C183     C      0.421570000000     0.630560000000     0.923720000000     0.0393587  
C184     C      0.362070000000     0.582230000000     0.928970000000     0.154939   
C185     C      0.116750000000     0.838070000000     0.895540000000     0.0363845  
C186     C      0.179430000000     0.880080000000     0.909460000000     0.00235475 
C187     C      0.093150000000     0.863150000000     0.927110000000     0.0382043  
C188     C      0.156370000000     0.904580000000     0.942190000000     0.154733   
C189     C      0.368130000000     0.909390000000     0.648350000000     0.0343316  
C190     C      0.431970000000     0.869790000000     0.664810000000     0.00416726 
C191     C      0.345490000000     0.886160000000     0.682150000000     0.0424181  
C192     C      0.409810000000     0.847300000000     0.699920000000     0.163714   
C193     C      0.931650000000     0.416470000000     0.481710000000     0.40636    
C194     C      0.586640000000     0.077670000000     0.479310000000     0.405865   
C195     C      0.928660000000     0.070590000000     0.473910000000     0.407338   
C196     C      0.587490000000     0.421520000000     0.479850000000     0.404497   
C197     C      0.590070000000     0.422510000000     0.098320000000     0.413089   
C198     C      0.925860000000     0.076870000000     0.093680000000     0.401799   
C199     C      0.932960000000     0.422460000000     0.104610000000     0.401298   
C200     C      0.583440000000     0.077400000000     0.098640000000     0.401828   
C201     C      0.840890000000     0.329190000000     0.236520000000     0.412258   
C202     C      0.675830000000     0.172340000000     0.229460000000     0.412371   
C203     C      0.832210000000     0.173570000000     0.221990000000     0.409987   
C204     C      0.682250000000     0.327710000000     0.228990000000     0.403873   
C205     C      0.682560000000     0.323680000000     0.353660000000     0.396502   
C206     C      0.833510000000     0.169380000000     0.348340000000     0.396151   
C207     C      0.834200000000     0.320460000000     0.355730000000     0.397088   
C208     C      0.681710000000     0.175150000000     0.352840000000     0.395247   
C209     C      0.646220000000     0.088590000000     0.146080000000     0.0339266  
C210     C      0.587640000000     0.137560000000     0.149650000000     0.00166528 
C211     C      0.668780000000     0.112460000000     0.179310000000     0.0425731  
C212     C      0.609900000000     0.161670000000     0.183360000000     0.15655    
C213     C      0.615900000000     0.161080000000     0.394870000000     0.0333975  
C214     C      0.678890000000     0.119820000000     0.409910000000     0.00197538 
C215     C      0.592270000000     0.136120000000     0.426550000000     0.0399717  
C216     C      0.655880000000     0.095730000000     0.443040000000     0.155039   
C217     C      0.619480000000     0.338980000000     0.181760000000     0.034169   
C218     C      0.678190000000     0.387850000000     0.178030000000     0.00173528 
C219     C      0.596990000000     0.362840000000     0.148570000000     0.0429406  
C220     C      0.655980000000     0.411950000000     0.144330000000     0.157115   
C221     C      0.865440000000     0.085160000000     0.145600000000     0.0352385  
C222     C      0.913050000000     0.143270000000     0.132240000000     0.00235868 
C223     C      0.842120000000     0.109920000000     0.177730000000     0.0403951  
C224     C      0.889340000000     0.168590000000     0.163610000000     0.15762    
C225     C      0.844150000000     0.382490000000     0.402940000000     0.0376672  
C226     C      0.895500000000     0.326310000000     0.406790000000     0.00317907 
C227     C      0.869070000000     0.406330000000     0.434290000000     0.037836   
C228     C      0.920480000000     0.349770000000     0.438960000000     0.15715    
C229     C      0.897970000000     0.155980000000     0.392640000000     0.0335206  
C230     C      0.838840000000     0.107770000000     0.397230000000     0.00119275 
C231     C      0.921570000000     0.130560000000     0.423720000000     0.0393415  
C232     C      0.862070000000     0.082230000000     0.428980000000     0.15494    
C233     C      0.616750000000     0.338070000000     0.395530000000     0.0362977  
C234     C      0.679430000000     0.380080000000     0.409460000000     0.00237238 
C235     C      0.593160000000     0.363150000000     0.427110000000     0.0382568  
C236     C      0.656370000000     0.404580000000     0.442190000000     0.154716   
C237     C      0.868130000000     0.409390000000     0.148350000000     0.0343166  
C238     C      0.931970000000     0.369790000000     0.164810000000     0.00416672 
C239     C      0.845490000000     0.386160000000     0.182140000000     0.0423818  
C240     C      0.909810000000     0.347290000000     0.199920000000     0.163719   
C241     C      0.931650000000     0.416470000000     0.981710000000     0.406295   
C242     C      0.586640000000     0.077670000000     0.979310000000     0.405812   
C243     C      0.928660000000     0.070590000000     0.973910000000     0.40727    
C244     C      0.587490000000     0.421520000000     0.979850000000     0.404449   
C245     C      0.590070000000     0.422510000000     0.598320000000     0.413139   
C246     C      0.925860000000     0.076870000000     0.593680000000     0.401885   
C247     C      0.932960000000     0.422460000000     0.604610000000     0.401377   
C248     C      0.583440000000     0.077400000000     0.598640000000     0.401879   
C249     C      0.840890000000     0.329190000000     0.736520000000     0.412266   
C250     C      0.675830000000     0.172340000000     0.729460000000     0.412382   
C251     C      0.832210000000     0.173570000000     0.721990000000     0.41003    
C252     C      0.682250000000     0.327710000000     0.728990000000     0.403885   
C253     C      0.682560000000     0.323680000000     0.853660000000     0.396515   
C254     C      0.833510000000     0.169380000000     0.848340000000     0.39616    
C255     C      0.834200000000     0.320460000000     0.855730000000     0.397136   
C256     C      0.681710000000     0.175150000000     0.852840000000     0.395259   
C257     C      0.646220000000     0.088590000000     0.646080000000     0.0339644  
C258     C      0.587640000000     0.137560000000     0.649650000000     0.00170275 
C259     C      0.668780000000     0.112460000000     0.679310000000     0.0425917  
C260     C      0.609900000000     0.161670000000     0.683360000000     0.156565   
C261     C      0.615900000000     0.161080000000     0.894870000000     0.0334186  
C262     C      0.678890000000     0.119820000000     0.909910000000     0.00200191 
C263     C      0.592270000000     0.136120000000     0.926550000000     0.0400011  
C264     C      0.655880000000     0.095730000000     0.943040000000     0.155045   
C265     C      0.619480000000     0.338980000000     0.681760000000     0.0341845  
C266     C      0.678190000000     0.387850000000     0.678030000000     0.00175609 
C267     C      0.596990000000     0.362840000000     0.648570000000     0.0429854  
C268     C      0.655980000000     0.411950000000     0.644330000000     0.157137   
C269     C      0.865440000000     0.085160000000     0.645600000000     0.0352742  
C270     C      0.913050000000     0.143270000000     0.632240000000     0.00239438 
C271     C      0.842120000000     0.109920000000     0.677730000000     0.0404149  
C272     C      0.889340000000     0.168590000000     0.663610000000     0.15764    
C273     C      0.844150000000     0.382490000000     0.902940000000     0.0376878  
C274     C      0.895500000000     0.326310000000     0.906790000000     0.00322689 
C275     C      0.869070000000     0.406330000000     0.934290000000     0.0378694  
C276     C      0.920480000000     0.349770000000     0.938970000000     0.157177   
C277     C      0.897970000000     0.155980000000     0.892640000000     0.0335459  
C278     C      0.838840000000     0.107770000000     0.897230000000     0.00119143 
C279     C      0.921570000000     0.130560000000     0.923720000000     0.0393666  
C280     C      0.862070000000     0.082230000000     0.928970000000     0.154942   
C281     C      0.616750000000     0.338070000000     0.895540000000     0.0363162  
C282     C      0.679430000000     0.380080000000     0.909460000000     0.00239806 
C283     C      0.593160000000     0.363150000000     0.927110000000     0.0382825  
C284     C      0.656370000000     0.404580000000     0.942190000000     0.154724   
C285     C      0.868130000000     0.409390000000     0.648350000000     0.0343385  
C286     C      0.931970000000     0.369790000000     0.664810000000     0.00419206 
C287     C      0.845490000000     0.386160000000     0.682150000000     0.0424299  
C288     C      0.909810000000     0.347290000000     0.699920000000     0.163728   
C289     C      0.931650000000     0.916470000000     0.481710000000     0.406356   
C290     C      0.586640000000     0.577670000000     0.479310000000     0.405785   
C291     C      0.928660000000     0.570590000000     0.473910000000     0.407341   
C292     C      0.587490000000     0.921520000000     0.479850000000     0.404494   
C293     C      0.590070000000     0.922510000000     0.098320000000     0.413086   
C294     C      0.925860000000     0.576860000000     0.093680000000     0.401836   
C295     C      0.932960000000     0.922460000000     0.104610000000     0.401293   
C296     C      0.583440000000     0.577400000000     0.098640000000     0.401876   
C297     C      0.840890000000     0.829190000000     0.236520000000     0.412138   
C298     C      0.675830000000     0.672350000000     0.229460000000     0.412406   
C299     C      0.832210000000     0.673570000000     0.221990000000     0.409932   
C300     C      0.682250000000     0.827710000000     0.228990000000     0.403874   
C301     C      0.682560000000     0.823680000000     0.353660000000     0.396499   
C302     C      0.833510000000     0.669380000000     0.348340000000     0.396141   
C303     C      0.834200000000     0.820460000000     0.355730000000     0.397094   
C304     C      0.681710000000     0.675150000000     0.352840000000     0.395118   
C305     C      0.646220000000     0.588590000000     0.146080000000     0.0339575  
C306     C      0.587640000000     0.637560000000     0.149650000000     0.00163452 
C307     C      0.668780000000     0.612460000000     0.179310000000     0.0425553  
C308     C      0.609900000000     0.661670000000     0.183360000000     0.156549   
C309     C      0.615900000000     0.661080000000     0.394870000000     0.0333898  
C310     C      0.678890000000     0.619820000000     0.409910000000     0.0019687  
C311     C      0.592270000000     0.636120000000     0.426550000000     0.0399703  
C312     C      0.655880000000     0.595730000000     0.443040000000     0.155038   
C313     C      0.619480000000     0.838980000000     0.181760000000     0.0341713  
C314     C      0.678190000000     0.887840000000     0.178030000000     0.00180412 
C315     C      0.596990000000     0.862840000000     0.148570000000     0.042934   
C316     C      0.655980000000     0.911950000000     0.144330000000     0.157083   
C317     C      0.865440000000     0.585160000000     0.145600000000     0.0352023  
C318     C      0.913050000000     0.643270000000     0.132240000000     0.0023742  
C319     C      0.842120000000     0.609920000000     0.177730000000     0.0404454  
C320     C      0.889340000000     0.668590000000     0.163610000000     0.157582   
C321     C      0.844150000000     0.882490000000     0.402940000000     0.0376633  
C322     C      0.895500000000     0.826310000000     0.406790000000     0.003179   
C323     C      0.869070000000     0.906330000000     0.434290000000     0.0378329  
C324     C      0.920480000000     0.849770000000     0.438960000000     0.157148   
C325     C      0.897970000000     0.655980000000     0.392640000000     0.0335189  
C326     C      0.838840000000     0.607770000000     0.397230000000     0.00118867 
C327     C      0.921570000000     0.630560000000     0.423720000000     0.0393393  
C328     C      0.862070000000     0.582230000000     0.428980000000     0.154941   
C329     C      0.616750000000     0.838070000000     0.395530000000     0.0362969  
C330     C      0.679430000000     0.880080000000     0.409460000000     0.00236875 
C331     C      0.593160000000     0.863150000000     0.427110000000     0.038255   
C332     C      0.656370000000     0.904580000000     0.442190000000     0.154715   
C333     C      0.868130000000     0.909390000000     0.148350000000     0.0343126  
C334     C      0.931970000000     0.869790000000     0.164810000000     0.00414827 
C335     C      0.845490000000     0.886160000000     0.182140000000     0.0423715  
C336     C      0.909810000000     0.847300000000     0.199920000000     0.163706   
C337     C      0.931650000000     0.916470000000     0.981710000000     0.406291   
C338     C      0.586640000000     0.577670000000     0.979310000000     0.405732   
C339     C      0.928660000000     0.570590000000     0.973910000000     0.407273   
C340     C      0.587490000000     0.921520000000     0.979850000000     0.404446   
C341     C      0.590070000000     0.922510000000     0.598320000000     0.413135   
C342     C      0.925860000000     0.576860000000     0.593680000000     0.401922   
C343     C      0.932960000000     0.922460000000     0.604610000000     0.401373   
C344     C      0.583440000000     0.577400000000     0.598640000000     0.401926   
C345     C      0.840890000000     0.829190000000     0.736520000000     0.412146   
C346     C      0.675830000000     0.672350000000     0.729460000000     0.412418   
C347     C      0.832210000000     0.673570000000     0.721990000000     0.409975   
C348     C      0.682250000000     0.827710000000     0.728990000000     0.403886   
C349     C      0.682560000000     0.823680000000     0.853660000000     0.396512   
C350     C      0.833510000000     0.669380000000     0.848340000000     0.39615    
C351     C      0.834200000000     0.820460000000     0.855730000000     0.397143   
C352     C      0.681710000000     0.675150000000     0.852840000000     0.39513    
C353     C      0.646220000000     0.588590000000     0.646080000000     0.0339953  
C354     C      0.587640000000     0.637560000000     0.649650000000     0.00167199 
C355     C      0.668780000000     0.612460000000     0.679310000000     0.0425739  
C356     C      0.609900000000     0.661670000000     0.683360000000     0.156565   
C357     C      0.615900000000     0.661080000000     0.894870000000     0.0334109  
C358     C      0.678890000000     0.619820000000     0.909910000000     0.00199523 
C359     C      0.592270000000     0.636120000000     0.926550000000     0.0399997  
C360     C      0.655880000000     0.595730000000     0.943040000000     0.155043   
C361     C      0.619480000000     0.838980000000     0.681760000000     0.0341868  
C362     C      0.678190000000     0.887840000000     0.678030000000     0.00182496 
C363     C      0.596990000000     0.862840000000     0.648570000000     0.0429788  
C364     C      0.655980000000     0.911950000000     0.644330000000     0.157105   
C365     C      0.865440000000     0.585160000000     0.645600000000     0.035238   
C366     C      0.913050000000     0.643270000000     0.632240000000     0.0024099  
C367     C      0.842120000000     0.609920000000     0.677730000000     0.0404652  
C368     C      0.889340000000     0.668590000000     0.663610000000     0.157602   
C369     C      0.844150000000     0.882490000000     0.902940000000     0.0376838  
C370     C      0.895500000000     0.826310000000     0.906790000000     0.00322682 
C371     C      0.869070000000     0.906330000000     0.934290000000     0.0378663  
C372     C      0.920480000000     0.849770000000     0.938970000000     0.157175   
C373     C      0.897970000000     0.655980000000     0.892640000000     0.0335442  
C374     C      0.838840000000     0.607770000000     0.897230000000     0.00118735 
C375     C      0.921570000000     0.630560000000     0.923720000000     0.0393644  
C376     C      0.862070000000     0.582230000000     0.928970000000     0.154943   
C377     C      0.616750000000     0.838070000000     0.895540000000     0.0363154  
C378     C      0.679430000000     0.880080000000     0.909460000000     0.00239443 
C379     C      0.593160000000     0.863150000000     0.927110000000     0.0382807  
C380     C      0.656370000000     0.904580000000     0.942190000000     0.154722   
C381     C      0.868130000000     0.909390000000     0.648350000000     0.0343345  
C382     C      0.931970000000     0.869790000000     0.664810000000     0.00417362 
C383     C      0.845490000000     0.886160000000     0.682150000000     0.0424196  
C384     C      0.909810000000     0.847300000000     0.699920000000     0.163716   
Co1      Co     0.009550000000     0.434780000000     0.541160000000     0.851881   
Co2      Co     0.506340000000     0.061860000000     0.036560000000     0.849669   
Co3      Co     0.442510000000     0.496500000000     0.539350000000     0.846541   
Co4      Co     0.072930000000     0.499680000000     0.039040000000     0.849901   
Co5      Co     0.259170000000     0.311720000000     0.290270000000     0.850666   
Co6      Co     0.256640000000     0.185190000000     0.286840000000     0.849881   
Co7      Co     0.322970000000     0.247580000000     0.288380000000     0.842566   
Co8      Co     0.192700000000     0.249670000000     0.288280000000     0.846245   
Co9      Co     0.009550000000     0.434780000000     0.041160000000     0.851105   
Co10     Co     0.506340000000     0.061860000000     0.536560000000     0.850451   
Co11     Co     0.442510000000     0.496500000000     0.039350000000     0.845764   
Co12     Co     0.072930000000     0.499680000000     0.539050000000     0.850703   
Co13     Co     0.259170000000     0.311720000000     0.790270000000     0.850677   
Co14     Co     0.256640000000     0.185190000000     0.786840000000     0.84989    
Co15     Co     0.322970000000     0.247580000000     0.788380000000     0.842494   
Co16     Co     0.192700000000     0.249670000000     0.788280000000     0.846251   
Co17     Co     0.009550000000     0.934780000000     0.541160000000     0.851897   
Co18     Co     0.506340000000     0.561860000000     0.036560000000     0.849521   
Co19     Co     0.442510000000     0.996500000000     0.539350000000     0.846395   
Co20     Co     0.072930000000     0.999680000000     0.039040000000     0.849776   
Co21     Co     0.259170000000     0.811720000000     0.290270000000     0.850619   
Co22     Co     0.256640000000     0.685190000000     0.286840000000     0.849893   
Co23     Co     0.322970000000     0.747590000000     0.288380000000     0.842589   
Co24     Co     0.192700000000     0.749670000000     0.288280000000     0.846282   
Co25     Co     0.009550000000     0.934780000000     0.041160000000     0.851121   
Co26     Co     0.506340000000     0.561860000000     0.536560000000     0.850302   
Co27     Co     0.442510000000     0.996500000000     0.039350000000     0.845619   
Co28     Co     0.072930000000     0.999680000000     0.539050000000     0.850578   
Co29     Co     0.259170000000     0.811720000000     0.790270000000     0.85063    
Co30     Co     0.256640000000     0.685190000000     0.786840000000     0.849902   
Co31     Co     0.322970000000     0.747590000000     0.788380000000     0.842516   
Co32     Co     0.192700000000     0.749670000000     0.788280000000     0.846289   
Co33     Co     0.509550000000     0.434780000000     0.541160000000     0.852065   
Co34     Co     0.006340000000     0.061860000000     0.036560000000     0.84948    
Co35     Co     0.942510000000     0.496500000000     0.539350000000     0.84668    
Co36     Co     0.572930000000     0.499680000000     0.039040000000     0.84984    
Co37     Co     0.759170000000     0.311720000000     0.290270000000     0.850676   
Co38     Co     0.756640000000     0.185190000000     0.286840000000     0.849878   
Co39     Co     0.822970000000     0.247580000000     0.288380000000     0.842568   
Co40     Co     0.692700000000     0.249670000000     0.288280000000     0.846296   
Co41     Co     0.509550000000     0.434780000000     0.041160000000     0.851288   
Co42     Co     0.006340000000     0.061860000000     0.536560000000     0.850261   
Co43     Co     0.942510000000     0.496500000000     0.039350000000     0.845903   
Co44     Co     0.572930000000     0.499680000000     0.539050000000     0.850642   
Co45     Co     0.759170000000     0.311720000000     0.790270000000     0.850686   
Co46     Co     0.756640000000     0.185190000000     0.786840000000     0.849887   
Co47     Co     0.822970000000     0.247580000000     0.788380000000     0.842495   
Co48     Co     0.692700000000     0.249670000000     0.788280000000     0.846302   
Co49     Co     0.509550000000     0.934780000000     0.541160000000     0.852081   
Co50     Co     0.006340000000     0.561860000000     0.036560000000     0.849331   
Co51     Co     0.942510000000     0.996500000000     0.539350000000     0.846535   
Co52     Co     0.572930000000     0.999680000000     0.039040000000     0.849715   
Co53     Co     0.759170000000     0.811720000000     0.290270000000     0.850629   
Co54     Co     0.756640000000     0.685190000000     0.286840000000     0.84989    
Co55     Co     0.822970000000     0.747590000000     0.288380000000     0.84259    
Co56     Co     0.692700000000     0.749670000000     0.288280000000     0.846333   
Co57     Co     0.509550000000     0.934780000000     0.041160000000     0.851305   
Co58     Co     0.006340000000     0.561860000000     0.536560000000     0.850112   
Co59     Co     0.942510000000     0.996500000000     0.039350000000     0.845758   
Co60     Co     0.572930000000     0.999680000000     0.539050000000     0.850517   
Co61     Co     0.759170000000     0.811720000000     0.790270000000     0.850639   
Co62     Co     0.756640000000     0.685190000000     0.786840000000     0.849899   
Co63     Co     0.822970000000     0.747590000000     0.788380000000     0.842518   
Co64     Co     0.692700000000     0.749670000000     0.788280000000     0.84634    
H1       H      0.200940000000     0.100880000000     0.189260000000     0.0540018  
H2       H      0.161980000000     0.060040000000     0.132460000000     0.0701736  
H3       H      0.055310000000     0.148200000000     0.139070000000     0.0775632  
H4       H      0.057870000000     0.143680000000     0.431100000000     0.0505823  
H5       H      0.098740000000     0.186640000000     0.376840000000     0.0562885  
H6       H      0.213490000000     0.113210000000     0.405190000000     0.0753429  
H7       H      0.064790000000     0.351300000000     0.138740000000     0.0586236  
H8       H      0.103660000000     0.310480000000     0.195440000000     0.0689114  
H9       H      0.210570000000     0.398410000000     0.188530000000     0.073166   
H10      H      0.314620000000     0.094730000000     0.195050000000     0.0514786  
H11      H      0.354680000000     0.052430000000     0.139580000000     0.055093   
H12      H      0.440400000000     0.157960000000     0.114140000000     0.0785989  
H13      H      0.356780000000     0.437810000000     0.443580000000     0.0690218  
H14      H      0.314220000000     0.396880000000     0.389900000000     0.0573905  
H15      H      0.406700000000     0.294490000000     0.397040000000     0.0768635  
H16      H      0.454280000000     0.141380000000     0.432550000000     0.0522689  
H17      H      0.413590000000     0.184750000000     0.379340000000     0.0564869  
H18      H      0.305960000000     0.097860000000     0.387760000000     0.0763679  
H19      H      0.058910000000     0.355370000000     0.432020000000     0.0654677  
H20      H      0.099680000000     0.312120000000     0.378070000000     0.0572738  
H21      H      0.213880000000     0.387100000000     0.404260000000     0.0746778  
H22      H      0.311050000000     0.393530000000     0.186770000000     0.0528712  
H23      H      0.350280000000     0.433760000000     0.129160000000     0.0574644  
H24      H      0.466590000000     0.363430000000     0.159940000000     0.0763648  
H25      H      0.200940000000     0.100880000000     0.689260000000     0.0540186  
H26      H      0.161980000000     0.060040000000     0.632460000000     0.0702171  
H27      H      0.055310000000     0.148200000000     0.639070000000     0.077592   
H28      H      0.057870000000     0.143680000000     0.931100000000     0.0506137  
H29      H      0.098740000000     0.186640000000     0.876840000000     0.0562974  
H30      H      0.213490000000     0.113210000000     0.905190000000     0.0753532  
H31      H      0.064790000000     0.351300000000     0.638740000000     0.0586586  
H32      H      0.103660000000     0.310480000000     0.695440000000     0.0689251  
H33      H      0.210570000000     0.398410000000     0.688530000000     0.0731742  
H34      H      0.314620000000     0.094730000000     0.695050000000     0.0514878  
H35      H      0.354680000000     0.052430000000     0.639580000000     0.0551267  
H36      H      0.440400000000     0.157960000000     0.614140000000     0.0786641  
H37      H      0.356780000000     0.437810000000     0.943570000000     0.0690451  
H38      H      0.314220000000     0.396880000000     0.889900000000     0.0573961  
H39      H      0.406700000000     0.294490000000     0.897040000000     0.0768746  
H40      H      0.454280000000     0.141380000000     0.932550000000     0.0523075  
H41      H      0.413590000000     0.184750000000     0.879330000000     0.0565009  
H42      H      0.305960000000     0.097860000000     0.887770000000     0.0763743  
H43      H      0.058910000000     0.355370000000     0.932020000000     0.0654853  
H44      H      0.099680000000     0.312120000000     0.878070000000     0.0572854  
H45      H      0.213880000000     0.387100000000     0.904260000000     0.0746891  
H46      H      0.311050000000     0.393530000000     0.686770000000     0.0528797  
H47      H      0.350280000000     0.433760000000     0.629160000000     0.0575278  
H48      H      0.466590000000     0.363430000000     0.659940000000     0.0763793  
H49      H      0.200940000000     0.600880000000     0.189260000000     0.0539997  
H50      H      0.161980000000     0.560040000000     0.132460000000     0.0701496  
H51      H      0.055310000000     0.648200000000     0.139070000000     0.0775714  
H52      H      0.057870000000     0.643680000000     0.431100000000     0.0505854  
H53      H      0.098740000000     0.686640000000     0.376840000000     0.0562892  
H54      H      0.213490000000     0.613210000000     0.405190000000     0.0753429  
H55      H      0.064790000000     0.851300000000     0.138740000000     0.0586248  
H56      H      0.103660000000     0.810480000000     0.195440000000     0.0689108  
H57      H      0.210570000000     0.898410000000     0.188530000000     0.0731362  
H58      H      0.314620000000     0.594730000000     0.195050000000     0.0514553  
H59      H      0.354680000000     0.552430000000     0.139580000000     0.0550845  
H60      H      0.440400000000     0.657960000000     0.114140000000     0.078599   
H61      H      0.356780000000     0.937810000000     0.443580000000     0.0690036  
H62      H      0.314220000000     0.896880000000     0.389900000000     0.0573827  
H63      H      0.406700000000     0.794490000000     0.397040000000     0.0768643  
H64      H      0.454280000000     0.641380000000     0.432550000000     0.0522688  
H65      H      0.413590000000     0.684750000000     0.379340000000     0.0564863  
H66      H      0.305960000000     0.597860000000     0.387760000000     0.0763636  
H67      H      0.058910000000     0.855370000000     0.432020000000     0.0654667  
H68      H      0.099680000000     0.812120000000     0.378070000000     0.0572745  
H69      H      0.213880000000     0.887100000000     0.404260000000     0.0746739  
H70      H      0.311050000000     0.893530000000     0.186770000000     0.052869   
H71      H      0.350280000000     0.933760000000     0.129160000000     0.0574515  
H72      H      0.466590000000     0.863430000000     0.159940000000     0.0763688  
H73      H      0.200940000000     0.600880000000     0.689260000000     0.0540165  
H74      H      0.161980000000     0.560040000000     0.632460000000     0.0701932  
H75      H      0.055310000000     0.648200000000     0.639070000000     0.0776002  
H76      H      0.057870000000     0.643680000000     0.931100000000     0.0506168  
H77      H      0.098740000000     0.686640000000     0.876840000000     0.056298   
H78      H      0.213490000000     0.613210000000     0.905190000000     0.0753532  
H79      H      0.064790000000     0.851300000000     0.638740000000     0.0586597  
H80      H      0.103660000000     0.810480000000     0.695440000000     0.0689245  
H81      H      0.210570000000     0.898410000000     0.688530000000     0.0731443  
H82      H      0.314620000000     0.594730000000     0.695050000000     0.0514646  
H83      H      0.354680000000     0.552430000000     0.639580000000     0.0551181  
H84      H      0.440400000000     0.657960000000     0.614140000000     0.0786642  
H85      H      0.356780000000     0.937810000000     0.943570000000     0.0690269  
H86      H      0.314220000000     0.896880000000     0.889900000000     0.0573883  
H87      H      0.406700000000     0.794490000000     0.897040000000     0.0768755  
H88      H      0.454280000000     0.641380000000     0.932550000000     0.0523075  
H89      H      0.413590000000     0.684750000000     0.879330000000     0.0565003  
H90      H      0.305960000000     0.597860000000     0.887770000000     0.07637    
H91      H      0.058910000000     0.855370000000     0.932020000000     0.0654843  
H92      H      0.099680000000     0.812120000000     0.878070000000     0.0572861  
H93      H      0.213880000000     0.887100000000     0.904260000000     0.0746853  
H94      H      0.311050000000     0.893530000000     0.686770000000     0.0528775  
H95      H      0.350280000000     0.933760000000     0.629160000000     0.0575149  
H96      H      0.466590000000     0.863430000000     0.659940000000     0.0763834  
H97      H      0.700930000000     0.100880000000     0.189260000000     0.0540028  
H98      H      0.661980000000     0.060040000000     0.132460000000     0.0701725  
H99      H      0.555310000000     0.148200000000     0.139070000000     0.0775871  
H100     H      0.557870000000     0.143680000000     0.431100000000     0.0506034  
H101     H      0.598740000000     0.186640000000     0.376840000000     0.056325   
H102     H      0.713490000000     0.113210000000     0.405190000000     0.0753435  
H103     H      0.564780000000     0.351300000000     0.138740000000     0.0586478  
H104     H      0.603660000000     0.310480000000     0.195440000000     0.0689249  
H105     H      0.710570000000     0.398410000000     0.188530000000     0.0731664  
H106     H      0.814620000000     0.094730000000     0.195050000000     0.0514804  
H107     H      0.854680000000     0.052430000000     0.139580000000     0.0550947  
H108     H      0.940400000000     0.157960000000     0.114140000000     0.0786196  
H109     H      0.856780000000     0.437810000000     0.443580000000     0.0690227  
H110     H      0.814220000000     0.396880000000     0.389900000000     0.0573914  
H111     H      0.906700000000     0.294490000000     0.397040000000     0.0768702  
H112     H      0.954280000000     0.141380000000     0.432550000000     0.0522959  
H113     H      0.913590000000     0.184750000000     0.379340000000     0.0564994  
H114     H      0.805960000000     0.097860000000     0.387760000000     0.0763682  
H115     H      0.558910000000     0.355370000000     0.432020000000     0.0654836  
H116     H      0.599680000000     0.312120000000     0.378070000000     0.0573034  
H117     H      0.713880000000     0.387100000000     0.404260000000     0.0746686  
H118     H      0.811050000000     0.393530000000     0.186770000000     0.052871   
H119     H      0.850280000000     0.433760000000     0.129160000000     0.0574641  
H120     H      0.966590000000     0.363430000000     0.159940000000     0.076396   
H121     H      0.700930000000     0.100880000000     0.689260000000     0.0540195  
H122     H      0.661980000000     0.060040000000     0.632460000000     0.0702161  
H123     H      0.555310000000     0.148200000000     0.639070000000     0.0776159  
H124     H      0.557870000000     0.143680000000     0.931100000000     0.0506349  
H125     H      0.598740000000     0.186640000000     0.876840000000     0.0563338  
H126     H      0.713490000000     0.113210000000     0.905190000000     0.0753538  
H127     H      0.564780000000     0.351300000000     0.638740000000     0.0586828  
H128     H      0.603660000000     0.310480000000     0.695440000000     0.0689386  
H129     H      0.710570000000     0.398410000000     0.688530000000     0.0731746  
H130     H      0.814620000000     0.094730000000     0.695050000000     0.0514896  
H131     H      0.854680000000     0.052430000000     0.639580000000     0.0551283  
H132     H      0.940400000000     0.157960000000     0.614140000000     0.0786848  
H133     H      0.856780000000     0.437810000000     0.943570000000     0.0690461  
H134     H      0.814220000000     0.396880000000     0.889900000000     0.057397   
H135     H      0.906700000000     0.294490000000     0.897040000000     0.0768814  
H136     H      0.954280000000     0.141380000000     0.932550000000     0.0523345  
H137     H      0.913590000000     0.184750000000     0.879330000000     0.0565134  
H138     H      0.805960000000     0.097860000000     0.887770000000     0.0763745  
H139     H      0.558910000000     0.355370000000     0.932020000000     0.0655012  
H140     H      0.599680000000     0.312120000000     0.878070000000     0.057315   
H141     H      0.713880000000     0.387100000000     0.904260000000     0.07468    
H142     H      0.811050000000     0.393530000000     0.686770000000     0.0528795  
H143     H      0.850280000000     0.433760000000     0.629160000000     0.0575275  
H144     H      0.966590000000     0.363430000000     0.659940000000     0.0764105  
H145     H      0.700930000000     0.600880000000     0.189260000000     0.0540007  
H146     H      0.661980000000     0.560040000000     0.132460000000     0.0701486  
H147     H      0.555310000000     0.648200000000     0.139070000000     0.0775954  
H148     H      0.557870000000     0.643680000000     0.431100000000     0.0506065  
H149     H      0.598740000000     0.686640000000     0.376840000000     0.0563257  
H150     H      0.713490000000     0.613210000000     0.405190000000     0.0753435  
H151     H      0.564780000000     0.851300000000     0.138740000000     0.058649   
H152     H      0.603660000000     0.810480000000     0.195440000000     0.0689243  
H153     H      0.710570000000     0.898410000000     0.188530000000     0.0731366  
H154     H      0.814620000000     0.594730000000     0.195050000000     0.0514572  
H155     H      0.854680000000     0.552430000000     0.139580000000     0.0550861  
H156     H      0.940400000000     0.657960000000     0.114140000000     0.0786197  
H157     H      0.856780000000     0.937810000000     0.443580000000     0.0690046  
H158     H      0.814220000000     0.896880000000     0.389900000000     0.0573836  
H159     H      0.906700000000     0.794490000000     0.397040000000     0.0768711  
H160     H      0.954280000000     0.641380000000     0.432550000000     0.0522958  
H161     H      0.913590000000     0.684750000000     0.379340000000     0.0564989  
H162     H      0.805960000000     0.597860000000     0.387760000000     0.0763639  
H163     H      0.558910000000     0.855370000000     0.432020000000     0.0654826  
H164     H      0.599680000000     0.812120000000     0.378070000000     0.0573042  
H165     H      0.713880000000     0.887100000000     0.404260000000     0.0746647  
H166     H      0.811050000000     0.893530000000     0.186770000000     0.0528689  
H167     H      0.850280000000     0.933760000000     0.129160000000     0.0574513  
H168     H      0.966590000000     0.863430000000     0.159940000000     0.0764     
H169     H      0.700930000000     0.600880000000     0.689260000000     0.0540174  
H170     H      0.661980000000     0.560040000000     0.632460000000     0.0701922  
H171     H      0.555310000000     0.648200000000     0.639070000000     0.0776241  
H172     H      0.557870000000     0.643680000000     0.931100000000     0.050638   
H173     H      0.598740000000     0.686640000000     0.876840000000     0.0563345  
H174     H      0.713490000000     0.613210000000     0.905190000000     0.0753538  
H175     H      0.564780000000     0.851300000000     0.638740000000     0.0586839  
H176     H      0.603660000000     0.810480000000     0.695440000000     0.068938   
H177     H      0.710570000000     0.898410000000     0.688530000000     0.0731447  
H178     H      0.814620000000     0.594730000000     0.695050000000     0.0514664  
H179     H      0.854680000000     0.552430000000     0.639580000000     0.0551198  
H180     H      0.940400000000     0.657960000000     0.614140000000     0.0786849  
H181     H      0.856780000000     0.937810000000     0.943570000000     0.0690279  
H182     H      0.814220000000     0.896880000000     0.889900000000     0.0573892  
H183     H      0.906700000000     0.794490000000     0.897040000000     0.0768823  
H184     H      0.954280000000     0.641380000000     0.932550000000     0.0523344  
H185     H      0.913590000000     0.684750000000     0.879330000000     0.0565129  
H186     H      0.805960000000     0.597860000000     0.887770000000     0.0763703  
H187     H      0.558910000000     0.855370000000     0.932020000000     0.0655002  
H188     H      0.599680000000     0.812120000000     0.878070000000     0.0573157  
H189     H      0.713880000000     0.887100000000     0.904260000000     0.0746761  
H190     H      0.811050000000     0.893530000000     0.686770000000     0.0528773  
H191     H      0.850280000000     0.933760000000     0.629160000000     0.0575147  
H192     H      0.966590000000     0.863430000000     0.659940000000     0.0764145  
N1       N      0.105750000000     0.101200000000     0.131100000000    -0.162068   
N2       N      0.151210000000     0.149270000000     0.197940000000    -0.185315   
N3       N      0.158910000000     0.152200000000     0.385710000000    -0.162977   
N4       N      0.111680000000     0.102670000000     0.449950000000    -0.183842   
N5       N      0.159970000000     0.351540000000     0.196620000000    -0.163556   
N6       N      0.114670000000     0.399570000000     0.129860000000    -0.184489   
N7       N      0.401470000000     0.101570000000     0.123630000000    -0.163127   
N8       N      0.354510000000     0.151300000000     0.187920000000    -0.184538   
N9       N      0.357720000000     0.342810000000     0.388510000000    -0.162975   
N10      N      0.407710000000     0.390740000000     0.451960000000    -0.182521   
N11      N      0.356650000000     0.144560000000     0.379290000000    -0.163141   
N12      N      0.404030000000     0.093650000000     0.442280000000    -0.184449   
N13      N      0.159650000000     0.347070000000     0.386080000000    -0.163692   
N14      N      0.112410000000     0.396980000000     0.449950000000    -0.181953   
N15      N      0.411030000000     0.400440000000     0.138830000000    -0.162722   
N16      N      0.365670000000     0.354070000000     0.206950000000    -0.184122   
N17      N      0.105750000000     0.101200000000     0.631110000000    -0.162035   
N18      N      0.151210000000     0.149270000000     0.697940000000    -0.18531    
N19      N      0.158910000000     0.152200000000     0.885710000000    -0.162975   
N20      N      0.111680000000     0.102670000000     0.949950000000    -0.183804   
N21      N      0.159970000000     0.351540000000     0.696620000000    -0.163551   
N22      N      0.114670000000     0.399570000000     0.629870000000    -0.18446    
N23      N      0.401470000000     0.101570000000     0.623630000000    -0.16312    
N24      N      0.354510000000     0.151300000000     0.687920000000    -0.184537   
N25      N      0.357720000000     0.342810000000     0.888510000000    -0.162979   
N26      N      0.407710000000     0.390740000000     0.951960000000    -0.182491   
N27      N      0.356650000000     0.144560000000     0.879290000000    -0.163134   
N28      N      0.404030000000     0.093650000000     0.942280000000    -0.184399   
N29      N      0.159650000000     0.347070000000     0.886080000000    -0.163688   
N30      N      0.112410000000     0.396980000000     0.949950000000    -0.181916   
N31      N      0.411030000000     0.400440000000     0.638830000000    -0.162716   
N32      N      0.365670000000     0.354070000000     0.706950000000    -0.18413    
N33      N      0.105750000000     0.601190000000     0.131100000000    -0.162103   
N34      N      0.151210000000     0.649270000000     0.197940000000    -0.18529    
N35      N      0.158910000000     0.652200000000     0.385710000000    -0.162954   
N36      N      0.111680000000     0.602670000000     0.449950000000    -0.183827   
N37      N      0.159970000000     0.851540000000     0.196620000000    -0.163574   
N38      N      0.114670000000     0.899570000000     0.129860000000    -0.184485   
N39      N      0.401470000000     0.601570000000     0.123630000000    -0.163102   
N40      N      0.354510000000     0.651290000000     0.187920000000    -0.184512   
N41      N      0.357720000000     0.842810000000     0.388510000000    -0.162977   
N42      N      0.407710000000     0.890740000000     0.451960000000    -0.182523   
N43      N      0.356650000000     0.644560000000     0.379290000000    -0.163139   
N44      N      0.404030000000     0.593650000000     0.442280000000    -0.184452   
N45      N      0.159650000000     0.847070000000     0.386080000000    -0.163692   
N46      N      0.112410000000     0.896980000000     0.449950000000    -0.181954   
N47      N      0.411030000000     0.900440000000     0.138830000000    -0.162721   
N48      N      0.365670000000     0.854070000000     0.206950000000    -0.184102   
N49      N      0.105750000000     0.601190000000     0.631110000000    -0.162069   
N50      N      0.151210000000     0.649270000000     0.697940000000    -0.185285   
N51      N      0.158910000000     0.652200000000     0.885710000000    -0.162952   
N52      N      0.111680000000     0.602670000000     0.949950000000    -0.183789   
N53      N      0.159970000000     0.851540000000     0.696620000000    -0.16357    
N54      N      0.114670000000     0.899570000000     0.629870000000    -0.184456   
N55      N      0.401470000000     0.601570000000     0.623630000000    -0.163094   
N56      N      0.354510000000     0.651290000000     0.687920000000    -0.184511   
N57      N      0.357720000000     0.842810000000     0.888510000000    -0.16298    
N58      N      0.407710000000     0.890740000000     0.951960000000    -0.182492   
N59      N      0.356650000000     0.644560000000     0.879290000000    -0.163133   
N60      N      0.404030000000     0.593650000000     0.942280000000    -0.184402   
N61      N      0.159650000000     0.847070000000     0.886080000000    -0.163688   
N62      N      0.112410000000     0.896980000000     0.949950000000    -0.181917   
N63      N      0.411030000000     0.900440000000     0.638830000000    -0.162716   
N64      N      0.365670000000     0.854070000000     0.706950000000    -0.18411    
N65      N      0.605750000000     0.101200000000     0.131100000000    -0.162067   
N66      N      0.651210000000     0.149270000000     0.197940000000    -0.18531    
N67      N      0.658910000000     0.152200000000     0.385710000000    -0.162953   
N68      N      0.611680000000     0.102670000000     0.449950000000    -0.183825   
N69      N      0.659970000000     0.351540000000     0.196620000000    -0.163553   
N70      N      0.614670000000     0.399570000000     0.129860000000    -0.184515   
N71      N      0.901470000000     0.101570000000     0.123630000000    -0.163122   
N72      N      0.854510000000     0.151300000000     0.187920000000    -0.184537   
N73      N      0.857720000000     0.342810000000     0.388510000000    -0.162975   
N74      N      0.907710000000     0.390740000000     0.451960000000    -0.182516   
N75      N      0.856650000000     0.144560000000     0.379290000000    -0.16314    
N76      N      0.904030000000     0.093650000000     0.442280000000    -0.184443   
N77      N      0.659660000000     0.347070000000     0.386080000000    -0.16373    
N78      N      0.612410000000     0.396980000000     0.449950000000    -0.181966   
N79      N      0.911030000000     0.400440000000     0.138830000000    -0.162716   
N80      N      0.865670000000     0.354070000000     0.206950000000    -0.184122   
N81      N      0.605750000000     0.101200000000     0.631110000000    -0.162033   
N82      N      0.651210000000     0.149270000000     0.697940000000    -0.185305   
N83      N      0.658910000000     0.152200000000     0.885710000000    -0.162951   
N84      N      0.611680000000     0.102670000000     0.949950000000    -0.183787   
N85      N      0.659970000000     0.351540000000     0.696620000000    -0.163548   
N86      N      0.614670000000     0.399570000000     0.629870000000    -0.184486   
N87      N      0.901470000000     0.101570000000     0.623630000000    -0.163115   
N88      N      0.854510000000     0.151300000000     0.687920000000    -0.184536   
N89      N      0.857720000000     0.342810000000     0.888510000000    -0.162978   
N90      N      0.907710000000     0.390740000000     0.951960000000    -0.182485   
N91      N      0.856650000000     0.144560000000     0.879290000000    -0.163133   
N92      N      0.904030000000     0.093650000000     0.942280000000    -0.184394   
N93      N      0.659660000000     0.347070000000     0.886080000000    -0.163725   
N94      N      0.612410000000     0.396980000000     0.949950000000    -0.181929   
N95      N      0.911030000000     0.400440000000     0.638830000000    -0.16271    
N96      N      0.865670000000     0.354070000000     0.706950000000    -0.184129   
N97      N      0.605750000000     0.601190000000     0.131100000000    -0.162101   
N98      N      0.651210000000     0.649270000000     0.197940000000    -0.185285   
N99      N      0.658910000000     0.652200000000     0.385710000000    -0.16293    
N100     N      0.611680000000     0.602670000000     0.449950000000    -0.183811   
N101     N      0.659970000000     0.851540000000     0.196620000000    -0.163572   
N102     N      0.614670000000     0.899570000000     0.129860000000    -0.184511   
N103     N      0.901470000000     0.601570000000     0.123630000000    -0.163097   
N104     N      0.854510000000     0.651290000000     0.187920000000    -0.184512   
N105     N      0.857720000000     0.842810000000     0.388510000000    -0.162976   
N106     N      0.907710000000     0.890740000000     0.451960000000    -0.182517   
N107     N      0.856650000000     0.644560000000     0.379290000000    -0.163139   
N108     N      0.904030000000     0.593650000000     0.442280000000    -0.184447   
N109     N      0.659660000000     0.847070000000     0.386080000000    -0.163729   
N110     N      0.612410000000     0.896980000000     0.449950000000    -0.181967   
N111     N      0.911030000000     0.900440000000     0.138830000000    -0.162716   
N112     N      0.865670000000     0.854070000000     0.206950000000    -0.184102   
N113     N      0.605750000000     0.601190000000     0.631110000000    -0.162068   
N114     N      0.651210000000     0.649270000000     0.697940000000    -0.185281   
N115     N      0.658910000000     0.652200000000     0.885710000000    -0.162928   
N116     N      0.611680000000     0.602670000000     0.949950000000    -0.183773   
N117     N      0.659970000000     0.851540000000     0.696620000000    -0.163567   
N118     N      0.614670000000     0.899570000000     0.629870000000    -0.184483   
N119     N      0.901470000000     0.601570000000     0.623630000000    -0.163089   
N120     N      0.854510000000     0.651290000000     0.687920000000    -0.184511   
N121     N      0.857720000000     0.842810000000     0.888510000000    -0.16298    
N122     N      0.907710000000     0.890740000000     0.951960000000    -0.182487   
N123     N      0.856650000000     0.644560000000     0.879290000000    -0.163132   
N124     N      0.904030000000     0.593650000000     0.942280000000    -0.184397   
N125     N      0.659660000000     0.847070000000     0.886080000000    -0.163725   
N126     N      0.612410000000     0.896980000000     0.949950000000    -0.181931   
N127     N      0.911030000000     0.900440000000     0.638830000000    -0.16271    
N128     N      0.865670000000     0.854070000000     0.706950000000    -0.184109   
O1       O      0.469250000000     0.404430000000     0.495910000000    -0.348005   
O2       O      0.048310000000     0.090340000000     0.491090000000    -0.364302   
O3       O      0.414400000000     0.035260000000     0.490690000000    -0.346807   
O4       O      0.101570000000     0.457920000000     0.493940000000    -0.339051   
O5       O      0.465680000000     0.085480000000     0.487160000000    -0.368085   
O6       O      0.050080000000     0.407680000000     0.493320000000    -0.354893   
O7       O      0.101400000000     0.041830000000     0.494250000000    -0.339352   
O8       O      0.415990000000     0.452720000000     0.494830000000    -0.355817   
O9       O      0.053200000000     0.407510000000     0.084870000000    -0.354612   
O10      O      0.461520000000     0.091970000000     0.076990000000    -0.353188   
O11      O      0.414960000000     0.455080000000     0.085390000000    -0.351021   
O12      O      0.100080000000     0.042370000000     0.083600000000    -0.341011   
O13      O      0.046170000000     0.090360000000     0.083930000000    -0.354638   
O14      O      0.471210000000     0.410170000000     0.092310000000    -0.35139    
O15      O      0.103440000000     0.458750000000     0.083270000000    -0.331561   
O16      O      0.413030000000     0.038950000000     0.083120000000    -0.350037   
O17      O      0.507740000000     0.498860000000     0.556870000000    -0.597778   
O18      O      0.302510000000     0.341790000000     0.248030000000    -0.356351   
O19      O      0.212920000000     0.157660000000     0.242840000000    -0.359397   
O20      O      0.347960000000     0.208460000000     0.238370000000    -0.335629   
O21      O      0.165610000000     0.292660000000     0.244020000000    -0.348847   
O22      O      0.296330000000     0.158400000000     0.238140000000    -0.357958   
O23      O      0.219580000000     0.340590000000     0.243430000000    -0.359074   
O24      O      0.162260000000     0.208510000000     0.244450000000    -0.338883   
O25      O      0.355200000000     0.292780000000     0.250370000000    -0.326712   
O26      O      0.220710000000     0.336190000000     0.341260000000    -0.364508   
O27      O      0.295920000000     0.156710000000     0.334350000000    -0.361813   
O28      O      0.348850000000     0.284710000000     0.339980000000    -0.354354   
O29      O      0.164890000000     0.209140000000     0.335280000000    -0.357477   
O30      O      0.219260000000     0.161750000000     0.339420000000    -0.36316    
O31      O      0.298510000000     0.336350000000     0.340130000000    -0.361613   
O32      O      0.165290000000     0.290150000000     0.335550000000    -0.358777   
O33      O      0.349910000000     0.204680000000     0.333470000000    -0.358123   
O34      O      0.257850000000     0.248890000000     0.269540000000    -0.591      
O35      O      0.469250000000     0.404430000000     0.995910000000    -0.347622   
O36      O      0.048310000000     0.090340000000     0.991090000000    -0.363907   
O37      O      0.414400000000     0.035260000000     0.990690000000    -0.346414   
O38      O      0.101570000000     0.457920000000     0.993940000000    -0.338705   
O39      O      0.465680000000     0.085480000000     0.987160000000    -0.367688   
O40      O      0.050080000000     0.407680000000     0.993320000000    -0.35451    
O41      O      0.101400000000     0.041830000000     0.994250000000    -0.339005   
O42      O      0.415990000000     0.452720000000     0.994830000000    -0.355418   
O43      O      0.053200000000     0.407510000000     0.584870000000    -0.354589   
O44      O      0.461520000000     0.091970000000     0.576990000000    -0.353165   
O45      O      0.414960000000     0.455080000000     0.585390000000    -0.350999   
O46      O      0.100080000000     0.042370000000     0.583600000000    -0.341023   
O47      O      0.046170000000     0.090360000000     0.583930000000    -0.35463    
O48      O      0.471210000000     0.410170000000     0.592310000000    -0.351399   
O49      O      0.103440000000     0.458750000000     0.583270000000    -0.331578   
O50      O      0.413030000000     0.038950000000     0.583120000000    -0.350027   
O51      O      0.507740000000     0.498860000000     0.056870000000    -0.597508   
O52      O      0.302510000000     0.341790000000     0.748030000000    -0.356351   
O53      O      0.212920000000     0.157660000000     0.742840000000    -0.359393   
O54      O      0.347960000000     0.208460000000     0.738360000000    -0.335621   
O55      O      0.165610000000     0.292660000000     0.744020000000    -0.348843   
O56      O      0.296330000000     0.158400000000     0.738140000000    -0.357965   
O57      O      0.219580000000     0.340590000000     0.743430000000    -0.359072   
O58      O      0.162260000000     0.208510000000     0.744450000000    -0.338879   
O59      O      0.355200000000     0.292780000000     0.750370000000    -0.326712   
O60      O      0.220710000000     0.336190000000     0.841260000000    -0.364505   
O61      O      0.295920000000     0.156710000000     0.834350000000    -0.36181    
O62      O      0.348850000000     0.284710000000     0.839990000000    -0.354343   
O63      O      0.164890000000     0.209140000000     0.835280000000    -0.357472   
O64      O      0.219260000000     0.161750000000     0.839420000000    -0.363158   
O65      O      0.298510000000     0.336350000000     0.840130000000    -0.361624   
O66      O      0.165290000000     0.290150000000     0.835550000000    -0.358772   
O67      O      0.349910000000     0.204680000000     0.833470000000    -0.35812    
O68      O      0.257850000000     0.248890000000     0.769540000000    -0.590981   
O69      O      0.469250000000     0.904430000000     0.495910000000    -0.348006   
O70      O      0.048310000000     0.590350000000     0.491090000000    -0.364219   
O71      O      0.414400000000     0.535260000000     0.490690000000    -0.346859   
O72      O      0.101570000000     0.957920000000     0.493940000000    -0.339056   
O73      O      0.465680000000     0.585480000000     0.487160000000    -0.368085   
O74      O      0.050080000000     0.907680000000     0.493320000000    -0.354894   
O75      O      0.101400000000     0.541830000000     0.494250000000    -0.33939    
O76      O      0.415990000000     0.952720000000     0.494830000000    -0.355824   
O77      O      0.053200000000     0.907510000000     0.084870000000    -0.354612   
O78      O      0.461520000000     0.591970000000     0.076990000000    -0.353162   
O79      O      0.414960000000     0.955080000000     0.085390000000    -0.351028   
O80      O      0.100080000000     0.542370000000     0.083600000000    -0.341075   
O81      O      0.046170000000     0.590360000000     0.083930000000    -0.354648   
O82      O      0.471210000000     0.910170000000     0.092310000000    -0.351391   
O83      O      0.103440000000     0.958750000000     0.083270000000    -0.331564   
O84      O      0.413030000000     0.538950000000     0.083120000000    -0.350174   
O85      O      0.507740000000     0.998860000000     0.556870000000    -0.597805   
O86      O      0.302510000000     0.841790000000     0.248030000000    -0.356323   
O87      O      0.212920000000     0.657660000000     0.242840000000    -0.359387   
O88      O      0.347960000000     0.708460000000     0.238370000000    -0.335578   
O89      O      0.165610000000     0.792660000000     0.244020000000    -0.348849   
O90      O      0.296330000000     0.658400000000     0.238140000000    -0.357943   
O91      O      0.219580000000     0.840590000000     0.243430000000    -0.359075   
O92      O      0.162260000000     0.708510000000     0.244450000000    -0.338973   
O93      O      0.355200000000     0.792770000000     0.250370000000    -0.326685   
O94      O      0.220710000000     0.836190000000     0.341260000000    -0.364505   
O95      O      0.295920000000     0.656710000000     0.334350000000    -0.36181    
O96      O      0.348850000000     0.784710000000     0.339980000000    -0.354392   
O97      O      0.164890000000     0.709150000000     0.335280000000    -0.357413   
O98      O      0.219260000000     0.661750000000     0.339420000000    -0.363129   
O99      O      0.298510000000     0.836350000000     0.340130000000    -0.361619   
O100     O      0.165290000000     0.790150000000     0.335550000000    -0.358771   
O101     O      0.349910000000     0.704680000000     0.333470000000    -0.358083   
O102     O      0.257850000000     0.748890000000     0.269540000000    -0.591003   
O103     O      0.469250000000     0.904430000000     0.995910000000    -0.347623   
O104     O      0.048310000000     0.590350000000     0.991090000000    -0.363825   
O105     O      0.414400000000     0.535260000000     0.990690000000    -0.346466   
O106     O      0.101570000000     0.957920000000     0.993940000000    -0.338709   
O107     O      0.465680000000     0.585480000000     0.987160000000    -0.367688   
O108     O      0.050080000000     0.907680000000     0.993320000000    -0.354511   
O109     O      0.101400000000     0.541830000000     0.994250000000    -0.339043   
O110     O      0.415990000000     0.952720000000     0.994830000000    -0.355425   
O111     O      0.053200000000     0.907510000000     0.584870000000    -0.354589   
O112     O      0.461520000000     0.591970000000     0.576990000000    -0.353139   
O113     O      0.414960000000     0.955080000000     0.585390000000    -0.351006   
O114     O      0.100080000000     0.542370000000     0.583600000000    -0.341088   
O115     O      0.046170000000     0.590360000000     0.583930000000    -0.354641   
O116     O      0.471210000000     0.910170000000     0.592310000000    -0.351399   
O117     O      0.103440000000     0.958750000000     0.583270000000    -0.331582   
O118     O      0.413030000000     0.538950000000     0.583120000000    -0.350164   
O119     O      0.507740000000     0.998860000000     0.056870000000    -0.597534   
O120     O      0.302510000000     0.841790000000     0.748030000000    -0.356323   
O121     O      0.212920000000     0.657660000000     0.742840000000    -0.359383   
O122     O      0.347960000000     0.708460000000     0.738360000000    -0.33557    
O123     O      0.165610000000     0.792660000000     0.744020000000    -0.348845   
O124     O      0.296330000000     0.658400000000     0.738140000000    -0.35795    
O125     O      0.219580000000     0.840590000000     0.743430000000    -0.359073   
O126     O      0.162260000000     0.708510000000     0.744450000000    -0.338969   
O127     O      0.355200000000     0.792770000000     0.750370000000    -0.326685   
O128     O      0.220710000000     0.836190000000     0.841260000000    -0.364502   
O129     O      0.295920000000     0.656710000000     0.834350000000    -0.361808   
O130     O      0.348850000000     0.784710000000     0.839990000000    -0.354382   
O131     O      0.164890000000     0.709150000000     0.835280000000    -0.357408   
O132     O      0.219260000000     0.661750000000     0.839420000000    -0.363127   
O133     O      0.298510000000     0.836350000000     0.840130000000    -0.36163    
O134     O      0.165290000000     0.790150000000     0.835550000000    -0.358767   
O135     O      0.349910000000     0.704680000000     0.833470000000    -0.35808    
O136     O      0.257850000000     0.748890000000     0.769540000000    -0.590984   
O137     O      0.969250000000     0.404430000000     0.495910000000    -0.347925   
O138     O      0.548310000000     0.090340000000     0.491090000000    -0.364272   
O139     O      0.914400000000     0.035260000000     0.490690000000    -0.346805   
O140     O      0.601570000000     0.457920000000     0.493940000000    -0.339047   
O141     O      0.965680000000     0.085480000000     0.487160000000    -0.368001   
O142     O      0.550080000000     0.407680000000     0.493320000000    -0.354876   
O143     O      0.601410000000     0.041830000000     0.494250000000    -0.339257   
O144     O      0.915990000000     0.452720000000     0.494830000000    -0.355815   
O145     O      0.553210000000     0.407510000000     0.084870000000    -0.354671   
O146     O      0.961520000000     0.091970000000     0.076990000000    -0.353107   
O147     O      0.914960000000     0.455080000000     0.085390000000    -0.351018   
O148     O      0.600080000000     0.042370000000     0.083600000000    -0.341007   
O149     O      0.546170000000     0.090360000000     0.083930000000    -0.354627   
O150     O      0.971210000000     0.410170000000     0.092310000000    -0.351298   
O151     O      0.603440000000     0.458750000000     0.083270000000    -0.331591   
O152     O      0.913030000000     0.038950000000     0.083120000000    -0.350034   
O153     O      0.007740000000     0.498860000000     0.556870000000    -0.597818   
O154     O      0.802510000000     0.341790000000     0.248030000000    -0.356352   
O155     O      0.712920000000     0.157660000000     0.242840000000    -0.359396   
O156     O      0.847960000000     0.208460000000     0.238370000000    -0.335626   
O157     O      0.665610000000     0.292660000000     0.244020000000    -0.348849   
O158     O      0.796330000000     0.158400000000     0.238140000000    -0.357957   
O159     O      0.719580000000     0.340590000000     0.243430000000    -0.359075   
O160     O      0.662260000000     0.208510000000     0.244450000000    -0.338889   
O161     O      0.855200000000     0.292780000000     0.250370000000    -0.326712   
O162     O      0.720710000000     0.336190000000     0.341260000000    -0.364536   
O163     O      0.795920000000     0.156710000000     0.334350000000    -0.361812   
O164     O      0.848850000000     0.284710000000     0.339980000000    -0.354352   
O165     O      0.664890000000     0.209140000000     0.335280000000    -0.357472   
O166     O      0.719260000000     0.161750000000     0.339420000000    -0.363159   
O167     O      0.798510000000     0.336350000000     0.340130000000    -0.361612   
O168     O      0.665300000000     0.290150000000     0.335550000000    -0.358876   
O169     O      0.849910000000     0.204680000000     0.333470000000    -0.358119   
O170     O      0.757850000000     0.248890000000     0.269540000000    -0.591006   
O171     O      0.969250000000     0.404430000000     0.995910000000    -0.347542   
O172     O      0.548310000000     0.090340000000     0.991090000000    -0.363878   
O173     O      0.914400000000     0.035260000000     0.990690000000    -0.346412   
O174     O      0.601570000000     0.457920000000     0.993940000000    -0.338701   
O175     O      0.965680000000     0.085480000000     0.987160000000    -0.367603   
O176     O      0.550080000000     0.407680000000     0.993320000000    -0.354492   
O177     O      0.601410000000     0.041830000000     0.994250000000    -0.33891    
O178     O      0.915990000000     0.452720000000     0.994830000000    -0.355416   
O179     O      0.553210000000     0.407510000000     0.584870000000    -0.354648   
O180     O      0.961520000000     0.091970000000     0.576990000000    -0.353084   
O181     O      0.914960000000     0.455080000000     0.585390000000    -0.350997   
O182     O      0.600080000000     0.042370000000     0.583600000000    -0.341019   
O183     O      0.546170000000     0.090360000000     0.583930000000    -0.35462    
O184     O      0.971210000000     0.410170000000     0.592310000000    -0.351306   
O185     O      0.603440000000     0.458750000000     0.583270000000    -0.331608   
O186     O      0.913030000000     0.038950000000     0.583120000000    -0.350024   
O187     O      0.007740000000     0.498860000000     0.056870000000    -0.597548   
O188     O      0.802510000000     0.341790000000     0.748030000000    -0.356352   
O189     O      0.712920000000     0.157660000000     0.742840000000    -0.359392   
O190     O      0.847960000000     0.208460000000     0.738360000000    -0.335618   
O191     O      0.665610000000     0.292660000000     0.744020000000    -0.348844   
O192     O      0.796330000000     0.158400000000     0.738140000000    -0.357964   
O193     O      0.719580000000     0.340590000000     0.743430000000    -0.359073   
O194     O      0.662260000000     0.208510000000     0.744450000000    -0.338885   
O195     O      0.855200000000     0.292780000000     0.750370000000    -0.326712   
O196     O      0.720710000000     0.336190000000     0.841260000000    -0.364533   
O197     O      0.795920000000     0.156710000000     0.834350000000    -0.36181    
O198     O      0.848850000000     0.284710000000     0.839990000000    -0.354341   
O199     O      0.664890000000     0.209140000000     0.835280000000    -0.357467   
O200     O      0.719260000000     0.161750000000     0.839420000000    -0.363157   
O201     O      0.798510000000     0.336350000000     0.840130000000    -0.361623   
O202     O      0.665300000000     0.290150000000     0.835550000000    -0.358871   
O203     O      0.849910000000     0.204680000000     0.833470000000    -0.358116   
O204     O      0.757850000000     0.248890000000     0.769540000000    -0.590987   
O205     O      0.969250000000     0.904430000000     0.495910000000    -0.347926   
O206     O      0.548310000000     0.590350000000     0.491090000000    -0.36419    
O207     O      0.914400000000     0.535260000000     0.490690000000    -0.346856   
O208     O      0.601570000000     0.957920000000     0.493940000000    -0.339052   
O209     O      0.965680000000     0.585480000000     0.487160000000    -0.368001   
O210     O      0.550080000000     0.907680000000     0.493320000000    -0.354877   
O211     O      0.601410000000     0.541830000000     0.494250000000    -0.339295   
O212     O      0.915990000000     0.952720000000     0.494830000000    -0.355821   
O213     O      0.553210000000     0.907510000000     0.084870000000    -0.354672   
O214     O      0.961520000000     0.591970000000     0.076990000000    -0.353081   
O215     O      0.914960000000     0.955080000000     0.085390000000    -0.351025   
O216     O      0.600080000000     0.542370000000     0.083600000000    -0.341071   
O217     O      0.546170000000     0.590360000000     0.083930000000    -0.354638   
O218     O      0.971210000000     0.910170000000     0.092310000000    -0.351299   
O219     O      0.603440000000     0.958750000000     0.083270000000    -0.331595   
O220     O      0.913030000000     0.538950000000     0.083120000000    -0.350171   
O221     O      0.007740000000     0.998860000000     0.556870000000    -0.597844   
O222     O      0.802510000000     0.841790000000     0.248030000000    -0.356324   
O223     O      0.712920000000     0.657660000000     0.242840000000    -0.359386   
O224     O      0.847960000000     0.708460000000     0.238370000000    -0.335576   
O225     O      0.665610000000     0.792660000000     0.244020000000    -0.348851   
O226     O      0.796330000000     0.658400000000     0.238140000000    -0.357942   
O227     O      0.719580000000     0.840590000000     0.243430000000    -0.359076   
O228     O      0.662260000000     0.708510000000     0.244450000000    -0.338979   
O229     O      0.855200000000     0.792770000000     0.250370000000    -0.326685   
O230     O      0.720710000000     0.836190000000     0.341260000000    -0.364533   
O231     O      0.795920000000     0.656710000000     0.334350000000    -0.361809   
O232     O      0.848850000000     0.784710000000     0.339980000000    -0.35439    
O233     O      0.664890000000     0.709150000000     0.335280000000    -0.357407   
O234     O      0.719260000000     0.661750000000     0.339420000000    -0.363128   
O235     O      0.798510000000     0.836350000000     0.340130000000    -0.361618   
O236     O      0.665300000000     0.790150000000     0.335550000000    -0.35887    
O237     O      0.849910000000     0.704680000000     0.333470000000    -0.358079   
O238     O      0.757850000000     0.748890000000     0.269540000000    -0.59101    
O239     O      0.969250000000     0.904430000000     0.995910000000    -0.347542   
O240     O      0.548310000000     0.590350000000     0.991090000000    -0.363795   
O241     O      0.914400000000     0.535260000000     0.990690000000    -0.346463   
O242     O      0.601570000000     0.957920000000     0.993940000000    -0.338705   
O243     O      0.965680000000     0.585480000000     0.987160000000    -0.367603   
O244     O      0.550080000000     0.907680000000     0.993320000000    -0.354493   
O245     O      0.601410000000     0.541830000000     0.994250000000    -0.338948   
O246     O      0.915990000000     0.952720000000     0.994830000000    -0.355422   
O247     O      0.553210000000     0.907510000000     0.584870000000    -0.354649   
O248     O      0.961520000000     0.591970000000     0.576990000000    -0.353058   
O249     O      0.914960000000     0.955080000000     0.585390000000    -0.351004   
O250     O      0.600080000000     0.542370000000     0.583600000000    -0.341083   
O251     O      0.546170000000     0.590360000000     0.583930000000    -0.35463    
O252     O      0.971210000000     0.910170000000     0.592310000000    -0.351307   
O253     O      0.603440000000     0.958750000000     0.583270000000    -0.331612   
O254     O      0.913030000000     0.538950000000     0.583120000000    -0.350161   
O255     O      0.007740000000     0.998860000000     0.056870000000    -0.597574   
O256     O      0.802510000000     0.841790000000     0.748030000000    -0.356324   
O257     O      0.712920000000     0.657660000000     0.742840000000    -0.359382   
O258     O      0.847960000000     0.708460000000     0.738360000000    -0.335568   
O259     O      0.665610000000     0.792660000000     0.744020000000    -0.348846   
O260     O      0.796330000000     0.658400000000     0.738140000000    -0.357949   
O261     O      0.719580000000     0.840590000000     0.743430000000    -0.359074   
O262     O      0.662260000000     0.708510000000     0.744450000000    -0.338975   
O263     O      0.855200000000     0.792770000000     0.750370000000    -0.326685   
O264     O      0.720710000000     0.836190000000     0.841260000000    -0.36453    
O265     O      0.795920000000     0.656710000000     0.834350000000    -0.361807   
O266     O      0.848850000000     0.784710000000     0.839990000000    -0.354379   
O267     O      0.664890000000     0.709150000000     0.835280000000    -0.357403   
O268     O      0.719260000000     0.661750000000     0.839420000000    -0.363126   
O269     O      0.798510000000     0.836350000000     0.840130000000    -0.361629   
O270     O      0.665300000000     0.790150000000     0.835550000000    -0.358865   
O271     O      0.849910000000     0.704680000000     0.833470000000    -0.358076   
O272     O      0.757850000000     0.748890000000     0.769540000000    -0.59099    


