data_structure

_audit_creation_method RASPA-1.0
_audit_creation_date 2023-6-4
_audit_author_name 'Poobodin Mano'

_cell_length_a    23.4454
_cell_length_b    23.4613
_cell_length_c    24.0513
_cell_angle_alpha 87.1359
_cell_angle_beta  93.8188
_cell_angle_gamma 120.433
_cell_volume      11379.5

_symmetry_cell_setting          triclinic
_symmetry_space_group_name_Hall 'P 1'
_symmetry_space_group_name_H-M  'P 1'
_symmetry_Int_Tables_number     1

_symmetry_equiv_pos_as_xyz 'x,y,z'

loop_
_atom_site_label
_atom_site_type_symbol
_atom_site_fract_x
_atom_site_fract_y
_atom_site_fract_z
_atom_site_charge
C1       C      0.097850000000     0.183290000000     0.012550000000     0.415673   
C2       C      0.950890000000     0.887730000000     0.007520000000     0.432775   
C3       C      0.073610000000     0.036880000000     0.907740000000     0.486026   
C4       C      0.923430000000     0.980710000000     0.112920000000     0.371814   
C5       C      0.071540000000     0.029970000000     0.191630000000     0.520549   
C6       C      0.237490000000     0.089950000000     0.964140000000     0.399289   
C7       C      0.214690000000     0.159530000000     0.094710000000     0.453638   
C8       C      0.089610000000     0.904090000000     0.088430000000     0.406049   
C9       C      0.999060000000     0.032950000000     0.403450000000     0.475333   
C10      C      0.984110000000     0.173530000000     0.617460000000     0.370303   
C11      C      0.879560000000     0.042880000000     0.502880000000     0.439199   
C12      C      0.157910000000     0.181870000000     0.485440000000     0.42873    
C13      C      0.160740000000     0.055850000000     0.571640000000     0.423197   
C14      C      0.883980000000     0.933310000000     0.602600000000     0.44162    
C15      C      0.050630000000     0.936830000000     0.462830000000     0.383935   
C16      C      0.044990000000     0.070020000000     0.682100000000     0.506864   
C17      C      0.971970000000     0.408340000000     0.987360000000     0.446263   
C18      C      0.136830000000     0.721700000000     0.996760000000     0.422625   
C19      C      0.950320000000     0.549960000000     0.054540000000     0.47907    
C20      C      0.110710000000     0.579380000000     0.896040000000     0.481451   
C21      C      0.268980000000     0.625940000000     0.975650000000     0.391573   
C22      C      0.062790000000     0.550840000000     0.170940000000     0.466559   
C23      C      0.106080000000     0.417760000000     0.065570000000     0.447654   
C24      C      0.218800000000     0.688710000000     0.105310000000     0.450675   
C25      C      0.892520000000     0.439800000000     0.489350000000     0.508909   
C26      C      0.060680000000     0.713180000000     0.467730000000     0.465505   
C27      C      0.899580000000     0.556840000000     0.586590000000     0.435332   
C28      C      0.089560000000     0.568070000000     0.402360000000     0.514669   
C29      C      0.160060000000     0.536110000000     0.539170000000     0.539997   
C30      C      0.046070000000     0.582630000000     0.669460000000     0.458586   
C31      C      0.963170000000     0.394100000000     0.608870000000     0.418759   
C32      C      0.155730000000     0.721890000000     0.594670000000     0.479313   
C33      C      0.471670000000     0.093160000000     0.976420000000     0.458426   
C34      C      0.573490000000     0.904300000000     0.012290000000     0.503816   
C35      C      0.597340000000     0.100640000000     0.908710000000     0.45729    
C36      C      0.444690000000     0.929890000000     0.113300000000     0.476757   
C37      C      0.577020000000     0.066590000000     0.184390000000     0.532267   
C38      C      0.730220000000     0.174420000000     0.011380000000     0.448054   
C39      C      0.530620000000     0.169360000000     0.101990000000     0.375872   
C40      C      0.714250000000     0.021100000000     0.072030000000     0.49883    
C41      C      0.378690000000     0.039380000000     0.516210000000     0.482432   
C42      C      0.521240000000     0.931440000000     0.498790000000     0.442615   
C43      C      0.554490000000     0.087820000000     0.408800000000     0.507266   
C44      C      0.385290000000     0.945560000000     0.645560000000     0.418835   
C45      C      0.558690000000     0.065390000000     0.686580000000     0.479463   
C46      C      0.663010000000     0.214890000000     0.498350000000     0.529789   
C47      C      0.488640000000     0.172830000000     0.596220000000     0.482786   
C48      C      0.658630000000     0.028720000000     0.586890000000     0.423944   
C49      C      0.441480000000     0.380470000000     0.031330000000     0.464585   
C50      C      0.616890000000     0.696180000000     0.009030000000     0.452009   
C51      C      0.451200000000     0.575270000000     0.081320000000     0.525353   
C52      C      0.566200000000     0.521710000000     0.928990000000     0.484136   
C53      C      0.724870000000     0.560760000000     0.997540000000     0.408073   
C54      C      0.549540000000     0.554200000000     0.202430000000     0.488877   
C55      C      0.557510000000     0.403900000000     0.134610000000     0.451856   
C56      C      0.729490000000     0.669910000000     0.095610000000     0.459964   
C57      C      0.399070000000     0.407850000000     0.501070000000     0.45526    
C58      C      0.523220000000     0.702440000000     0.517690000000     0.491491   
C59      C      0.368830000000     0.517880000000     0.621410000000     0.54482    
C60      C      0.551450000000     0.553000000000     0.432740000000     0.461391   
C61      C      0.665520000000     0.560030000000     0.551880000000     0.477759   
C62      C      0.517560000000     0.543750000000     0.702260000000     0.491645   
C63      C      0.462890000000     0.379300000000     0.626190000000     0.406725   
C64      C      0.651310000000     0.706530000000     0.616260000000     0.50019    
C65      C      0.522250000000     0.471330000000     0.840210000000     0.0349534  
C66      C      0.569750000000     0.586220000000     0.849340000000     0.0221656  
C67      C      0.513240000000     0.478450000000     0.782570000000     0.0331343  
C68      C      0.563100000000     0.594260000000     0.791900000000     0.0696907  
C69      C      0.529800000000     0.494580000000     0.347590000000     0.031465   
C70      C      0.569090000000     0.609110000000     0.345720000000     0.0190868  
C71      C      0.527040000000     0.495320000000     0.288970000000     0.0351224  
C72      C      0.569540000000     0.610880000000     0.287770000000     0.0740374  
C73      C      0.569360000000     0.869730000000     0.469550000000     0.0293945  
C74      C      0.457930000000     0.814570000000     0.493050000000     0.0158403  
C75      C      0.569860000000     0.810160000000     0.476010000000     0.0302268  
C76      C      0.457500000000     0.754610000000     0.498470000000     0.0666629  
C77      C      0.536990000000     0.280400000000     0.629330000000     0.0339216  
C78      C      0.422410000000     0.208060000000     0.637370000000     0.0192372  
C79      C      0.529230000000     0.332090000000     0.643570000000     0.0286732  
C80      C      0.413430000000     0.261730000000     0.646020000000     0.06564    
C81      C      0.590460000000     0.146140000000     0.819890000000     0.0362844  
C82      C      0.621640000000     0.065020000000     0.828880000000     0.0299335  
C83      C      0.579800000000     0.135870000000     0.762320000000     0.0352184  
C84      C      0.616080000000     0.058190000000     0.771230000000     0.0681301  
C85      C      0.532330000000     0.095750000000     0.257020000000     0.0345774  
C86      C      0.611800000000     0.063750000000     0.278110000000     0.0202927  
C87      C      0.523930000000     0.096870000000     0.313990000000     0.0327439  
C88      C      0.603130000000     0.063500000000     0.334780000000     0.0707186  
C89      C      0.590630000000     0.829680000000     0.957710000000     0.0327717  
C90      C      0.613140000000     0.838350000000     0.054290000000     0.0207388  
C91      C      0.609380000000     0.780750000000     0.957470000000     0.0274435  
C92      C      0.628760000000     0.789170000000     0.055030000000     0.0689949  
C93      C      0.480060000000     0.226350000000     0.138090000000     0.0248252  
C94      C      0.595610000000     0.273370000000     0.144670000000     0.0113873  
C95      C      0.488240000000     0.288060000000     0.151300000000     0.0354716  
C96      C      0.603590000000     0.334700000000     0.156650000000     0.0727781  
C97      C      0.777420000000     0.390390000000     0.496360000000     0.0374184  
C98      C      0.821440000000     0.339340000000     0.445190000000     0.0199806  
C99      C      0.718570000000     0.330360000000     0.500740000000     0.0398728  
C100     C      0.764310000000     0.278030000000     0.452970000000     0.0720137  
C101     C      0.267860000000     0.774620000000     0.626080000000     0.0297746  
C102     C      0.206700000000     0.826120000000     0.641640000000     0.0172654  
C103     C      0.325480000000     0.830390000000     0.643190000000     0.0348653  
C104     C      0.266020000000     0.884080000000     0.658200000000     0.0669824  
C105     C      0.789450000000     0.520650000000     0.614650000000     0.0301847  
C106     C      0.841030000000     0.607980000000     0.549540000000     0.0151656  
C107     C      0.730150000000     0.521410000000     0.603420000000     0.029739   
C108     C      0.782690000000     0.609590000000     0.538360000000     0.0700495  
C109     C      0.259400000000     0.461230000000     0.582340000000     0.0346304  
C110     C      0.297920000000     0.558980000000     0.632500000000     0.0263531  
C111     C      0.208490000000     0.469360000000     0.557300000000     0.0336417  
C112     C      0.244010000000     0.563820000000     0.611350000000     0.0672751  
C113     C      0.069410000000     0.528350000000     0.809080000000     0.034562   
C114     C      0.099680000000     0.639940000000     0.815790000000     0.0231426  
C115     C      0.055540000000     0.530330000000     0.752430000000     0.0347706  
C116     C      0.081720000000     0.641210000000     0.758310000000     0.0689414  
C117     C      0.106850000000     0.620720000000     0.311570000000     0.0342965  
C118     C      0.059100000000     0.505310000000     0.320260000000     0.0227815  
C119     C      0.096680000000     0.615040000000     0.253200000000     0.0311116  
C120     C      0.049920000000     0.499160000000     0.262310000000     0.06999    
C121     C      0.864130000000     0.345470000000     0.020400000000     0.0266197  
C122     C      0.903080000000     0.291430000000     0.968000000000     0.0169444  
C123     C      0.805650000000     0.286690000000     0.028570000000     0.0297726  
C124     C      0.841390000000     0.231550000000     0.973230000000     0.0674729  
C125     C      0.327060000000     0.865550000000     0.120620000000     0.0337347  
C126     C      0.390710000000     0.814870000000     0.140230000000     0.0193561  
C127     C      0.269350000000     0.803370000000     0.123370000000     0.0374052  
C128     C      0.332580000000     0.751910000000     0.140030000000     0.0690942  
C129     C      0.836290000000     0.594080000000     0.981330000000     0.0284071  
C130     C      0.786260000000     0.531080000000     0.061820000000     0.0182327  
C131     C      0.891820000000     0.588700000000     0.995940000000     0.0314903  
C132     C      0.843650000000     0.529710000000     0.078780000000     0.0682068  
C133     C      0.327420000000     0.569380000000     0.978680000000     0.0359911  
C134     C      0.375340000000     0.672290000000     0.022050000000     0.0200908  
C135     C      0.372090000000     0.556070000000     0.008180000000     0.037099   
C136     C      0.419130000000     0.657690000000     0.054230000000     0.0784503  
C137     C      0.773260000000     0.880070000000     0.633080000000     0.0271465  
C138     C      0.827830000000     0.819590000000     0.627970000000     0.0127969  
C139     C      0.712580000000     0.820890000000     0.637430000000     0.0324222  
C140     C      0.768140000000     0.760800000000     0.635480000000     0.0692735  
C141     C      0.335460000000     0.295250000000     0.471900000000     0.0318445  
C142     C      0.283690000000     0.358170000000     0.476640000000     0.0207301  
C143     C      0.272970000000     0.237310000000     0.467010000000     0.0290934  
C144     C      0.221090000000     0.300410000000     0.471750000000     0.0643034  
C145     C      0.712310000000     0.976470000000     0.549860000000     0.0284805  
C146     C      0.764190000000     0.092500000000     0.547000000000     0.00361995 
C147     C      0.765780000000     0.980550000000     0.523590000000     0.0331433  
C148     C      0.818220000000     0.096960000000     0.520730000000     0.0724777  
C149     C      0.274350000000     0.105150000000     0.552740000000     0.0279458  
C150     C      0.208710000000     0.989240000000     0.554570000000     0.019085   
C151     C      0.326010000000     0.100260000000     0.532520000000     0.0434085  
C152     C      0.262590000000     0.983960000000     0.537540000000     0.071819   
C153     C      0.998080000000     0.765150000000     0.447480000000     0.029406   
C154     C      0.111930000000     0.825450000000     0.432310000000     0.0183639  
C155     C      0.996590000000     0.823150000000     0.448950000000     0.0293337  
C156     C      0.109830000000     0.884830000000     0.430110000000     0.0630418  
C157     C      0.917570000000     0.222460000000     0.630890000000     0.0287768  
C158     C      0.033740000000     0.289140000000     0.632140000000     0.016299   
C159     C      0.911710000000     0.279370000000     0.630600000000     0.0327991  
C160     C      0.027990000000     0.345500000000     0.635560000000     0.0696076  
C161     C      0.096070000000     0.104960000000     0.827330000000     0.033289   
C162     C      0.017100000000     0.991130000000     0.821140000000     0.0205113  
C163     C      0.092710000000     0.111540000000     0.769850000000     0.0380423  
C164     C      0.010190000000     0.998420000000     0.763250000000     0.0727545  
C165     C      0.066300000000     0.086970000000     0.327030000000     0.0380116  
C166     C      0.991890000000     0.972110000000     0.324590000000     0.0246619  
C167     C      0.089510000000     0.084270000000     0.276070000000     0.0351569  
C168     C      0.017130000000     0.968490000000     0.274400000000     0.068331   
C169     C      0.840450000000     0.719020000000     0.062440000000     0.037443   
C170     C      0.786370000000     0.780170000000     0.058350000000     0.0314027  
C171     C      0.894340000000     0.772370000000     0.035370000000     0.0396535  
C172     C      0.836050000000     0.829390000000     0.026300000000     0.0790626  
C173     C      0.327430000000     0.210880000000     0.073550000000     0.0359736  
C174     C      0.281860000000     0.275060000000     0.097070000000     0.0235043  
C175     C      0.381840000000     0.266890000000     0.052790000000     0.0331428  
C176     C      0.334690000000     0.331050000000     0.074240000000     0.0590395  
C177     C      0.858340000000     0.007870000000     0.054080000000     0.0291342  
C178     C      0.819360000000     0.960190000000     0.142120000000     0.0134862  
C179     C      0.806990000000     0.020090000000     0.044690000000     0.0344216  
C180     C      0.769220000000     0.976910000000     0.134560000000     0.0716506  
C181     C      0.356310000000     0.035070000000     0.955320000000     0.0351896  
C182     C      0.414630000000     0.150800000000     0.946170000000     0.0218288  
C183     C      0.296830000000     0.035010000000     0.953060000000     0.033504   
C184     C      0.354270000000     0.150910000000     0.941630000000     0.0642609  
C185     C      0.056800000000     0.790760000000     0.075150000000     0.031363   
C186     C      0.164910000000     0.875140000000     0.056560000000     0.00410521 
C187     C      0.067480000000     0.746880000000     0.046150000000     0.01566    
C188     C      0.175530000000     0.832080000000     0.026520000000     0.068617   
C189     C      0.158720000000     0.360090000000     0.035500000000     0.0249821  
C190     C      0.048000000000     0.299920000000     0.060220000000     0.0200095  
C191     C      0.155280000000     0.301230000000     0.019780000000     0.0261024  
C192     C      0.043080000000     0.241210000000     0.042240000000     0.0555922  
Co1      Co     0.069470000000     0.099660000000     0.094860000000     1.05896    
Co2      Co     0.095440000000     0.969950000000     0.998280000000     0.967086   
Co3      Co     0.154980000000     0.096540000000     0.004450000000     1.12221    
Co4      Co     0.006500000000     0.967280000000     0.090010000000     1.09223    
Co5      Co     0.067450000000     0.038170000000     0.495210000000     1.09924    
Co6      Co     0.967950000000     0.075390000000     0.586830000000     1.17827    
Co7      Co     0.946900000000     0.962810000000     0.504350000000     0.926404   
Co8      Co     0.099530000000     0.141930000000     0.584400000000     0.944535   
Co9      Co     0.120410000000     0.499870000000     0.983360000000     1.01404    
Co10     Co     0.076680000000     0.627690000000     0.061650000000     1.09811    
Co11     Co     0.017700000000     0.478570000000     0.077960000000     1.07141    
Co12     Co     0.185600000000     0.635070000000     0.002510000000     1.05112    
Co13     Co     0.025060000000     0.477690000000     0.497340000000     1.11665    
Co14     Co     0.017830000000     0.641070000000     0.562090000000     1.07811    
Co15     Co     0.976670000000     0.497510000000     0.589060000000     1.06822    
Co16     Co     0.136280000000     0.646130000000     0.505490000000     1.11998    
Co17     Co     0.513610000000     0.065370000000     0.070960000000     1.04789    
Co18     Co     0.630990000000     0.032630000000     0.979660000000     1.11199    
Co19     Co     0.605540000000     0.152700000000     0.018350000000     0.902914   
Co20     Co     0.593050000000     0.987830000000     0.110330000000     1.22508    
Co21     Co     0.461240000000     0.041080000000     0.601620000000     1.07777    
Co22     Co     0.620490000000     0.082030000000     0.515100000000     1.146      
Co23     Co     0.518790000000     0.138170000000     0.495950000000     1.14369    
Co24     Co     0.520110000000     0.975880000000     0.597390000000     0.939552   
Co25     Co     0.581730000000     0.458590000000     0.030310000000     0.988249   
Co26     Co     0.585020000000     0.628490000000     0.105980000000     1.11638    
Co27     Co     0.480390000000     0.474010000000     0.099460000000     1.15997    
Co28     Co     0.650280000000     0.588790000000     0.018890000000     1.04799    
Co29     Co     0.534190000000     0.475620000000     0.542780000000     0.877558   
Co30     Co     0.505160000000     0.628000000000     0.614190000000     1.19899    
Co31     Co     0.452190000000     0.471080000000     0.595760000000     1.03464    
Co32     Co     0.602180000000     0.633460000000     0.520750000000     1.12292    
H1       H      0.489540000000     0.433850000000     0.758200000000     0.0447546  
H2       H      0.506810000000     0.422360000000     0.857530000000     0.0384437  
H3       H      0.593280000000     0.630460000000     0.874240000000     0.0489752  
H4       H      0.628770000000     0.721730000000     0.808860000000     0.0332879  
H5       H      0.510020000000     0.449230000000     0.267840000000     0.0347211  
H6       H      0.513760000000     0.447960000000     0.369830000000     0.0378322  
H7       H      0.585140000000     0.655230000000     0.366480000000     0.0414311  
H8       H      0.605350000000     0.735710000000     0.291300000000     0.0320947  
H9       H      0.615980000000     0.811570000000     0.469940000000     0.0323794  
H10      H      0.614930000000     0.914060000000     0.458880000000     0.0342927  
H11      H      0.412560000000     0.814600000000     0.499560000000     0.0417278  
H12      H      0.329940000000     0.695830000000     0.509780000000     0.0321047  
H13      H      0.574040000000     0.380020000000     0.647590000000     0.0442533  
H14      H      0.586390000000     0.289810000000     0.622560000000     0.0363106  
H15      H      0.379860000000     0.158450000000     0.637660000000     0.0463851  
H16      H      0.289200000000     0.179320000000     0.662120000000     0.0404698  
H17      H      0.561160000000     0.163640000000     0.737890000000     0.0448455  
H18      H      0.579280000000     0.180600000000     0.838000000000     0.0345586  
H19      H      0.638890000000     0.036880000000     0.854660000000     0.0181113  
H20      H      0.672810000000     0.987130000000     0.785780000000     0.0312255  
H21      H      0.489490000000     0.111480000000     0.326120000000     0.0373163  
H22      H      0.502540000000     0.107480000000     0.227520000000     0.043266   
H23      H      0.646200000000     0.049330000000     0.265350000000     0.0429118  
H24      H      0.683780000000     0.016680000000     0.349500000000     0.0316615  
H25      H      0.604620000000     0.757040000000     0.918470000000     0.0277245  
H26      H      0.574930000000     0.844080000000     0.918790000000     0.0340602  
H27      H      0.616360000000     0.859580000000     0.094220000000     0.0323899  
H28      H      0.639260000000     0.801540000000     0.163780000000     0.0395671  
H29      H      0.444340000000     0.291760000000     0.154080000000     0.037249   
H30      H      0.430480000000     0.184850000000     0.130790000000     0.0414709  
H31      H      0.639600000000     0.269080000000     0.145200000000     0.0474577  
H32      H      0.726730000000     0.376440000000     0.183040000000     0.0359827  
H33      H      0.678820000000     0.328410000000     0.523030000000     0.032007   
H34      H      0.782360000000     0.433150000000     0.516500000000     0.0409632  
H35      H      0.861730000000     0.341210000000     0.423840000000     0.0370178  
H36      H      0.811330000000     0.224630000000     0.391890000000     0.0354445  
H37      H      0.370800000000     0.828550000000     0.642770000000     0.036595   
H38      H      0.273240000000     0.734990000000     0.611300000000     0.0365075  
H39      H      0.160010000000     0.825220000000     0.641800000000     0.0366043  
H40      H      0.195220000000     0.934630000000     0.683480000000     0.0337708  
H41      H      0.687390000000     0.485700000000     0.625900000000     0.0408971  
H42      H      0.789990000000     0.484300000000     0.644000000000     0.0416187  
H43      H      0.884700000000     0.644400000000     0.528380000000     0.034798   
H44      H      0.850020000000     0.713440000000     0.474760000000     0.0289381  
H45      H      0.174250000000     0.433480000000     0.527360000000     0.0314021  
H46      H      0.263840000000     0.419830000000     0.570330000000     0.042061   
H47      H      0.332070000000     0.594090000000     0.663240000000     0.0319092  
H48      H      0.263370000000     0.639500000000     0.694120000000     0.0315431  
H49      H      0.038080000000     0.484740000000     0.730370000000     0.0476384  
H50      H      0.063040000000     0.482000000000     0.826430000000     0.0415422  
H51      H      0.117670000000     0.684050000000     0.840110000000     0.0448762  
H52      H      0.112560000000     0.763190000000     0.769840000000     0.0349478  
H53      H      0.112840000000     0.660020000000     0.228340000000     0.0381577  
H54      H      0.128700000000     0.669360000000     0.329360000000     0.0370645  
H55      H      0.042590000000     0.460420000000     0.345350000000     0.0397221  
H56      H      0.990320000000     0.371260000000     0.279640000000     0.0339189  
H57      H      0.769950000000     0.289290000000     0.053240000000     0.0367972  
H58      H      0.869050000000     0.388510000000     0.039970000000     0.0338267  
H59      H      0.941400000000     0.292070000000     0.944620000000     0.0392623  
H60      H      0.887280000000     0.176410000000     0.912770000000     0.0378858  
H61      H      0.222380000000     0.801690000000     0.118940000000     0.0412432  
H62      H      0.322010000000     0.908810000000     0.113370000000     0.0432239  
H63      H      0.437720000000     0.818080000000     0.151460000000     0.0352478  
H64      H      0.397130000000     0.701160000000     0.192450000000     0.0362152  
H65      H      0.932070000000     0.611850000000     0.967680000000     0.0502056  
H66      H      0.835350000000     0.620440000000     0.943240000000     0.0401369  
H67      H      0.745900000000     0.510030000000     0.089980000000     0.0571022  
H68      H      0.808910000000     0.510550000000     0.181190000000     0.0401496  
H69      H      0.369650000000     0.510360000000     0.998280000000     0.0512794  
H70      H      0.291150000000     0.532440000000     0.950180000000     0.0320303  
H71      H      0.376480000000     0.718190000000     0.029120000000     0.0512765  
H72      H      0.477590000000     0.776520000000     0.090200000000     0.0365093  
H73      H      0.667950000000     0.823730000000     0.638780000000     0.0352721  
H74      H      0.773350000000     0.926280000000     0.633050000000     0.0442382  
H75      H      0.872820000000     0.817500000000     0.625710000000     0.0417203  
H76      H      0.834500000000     0.699670000000     0.651930000000     0.0335468  
H77      H      0.271550000000     0.190780000000     0.463340000000     0.0399026  
H78      H      0.379190000000     0.290550000000     0.472530000000     0.0365571  
H79      H      0.286320000000     0.405570000000     0.478230000000     0.0405862  
H80      H      0.169580000000     0.374790000000     0.450580000000     0.0315209  
H81      H      0.763770000000     0.934350000000     0.516120000000     0.0359512  
H82      H      0.671720000000     0.927830000000     0.560440000000     0.0352192  
H83      H      0.764510000000     0.137900000000     0.554250000000     0.0398684  
H84      H      0.865880000000     0.223930000000     0.509160000000     0.0337424  
H85      H      0.370810000000     0.146550000000     0.524050000000     0.0341467  
H86      H      0.281910000000     0.154180000000     0.557610000000     0.0367436  
H87      H      0.161710000000     0.944220000000     0.560500000000     0.0438026  
H88      H      0.185430000000     0.857500000000     0.532640000000     0.0430699  
H89      H      0.949200000000     0.819110000000     0.454950000000     0.0292959  
H90      H      0.951890000000     0.719160000000     0.452760000000     0.0359207  
H91      H      0.157990000000     0.827140000000     0.425430000000     0.0379736  
H92      H      0.229610000000     0.946760000000     0.395740000000     0.0349929  
H93      H      0.862750000000     0.273710000000     0.626680000000     0.0391884  
H94      H      0.872440000000     0.174730000000     0.629520000000     0.0477768  
H95      H      0.082780000000     0.294950000000     0.634420000000     0.0403362  
H96      H      0.152390000000     0.412490000000     0.665750000000     0.0363773  
H97      H      0.123430000000     0.160270000000     0.751460000000     0.0356835  
H98      H      0.131040000000     0.148450000000     0.850690000000     0.048033   
H99      H      0.988310000000     0.942620000000     0.840480000000     0.043234   
H100     H      0.925160000000     0.872450000000     0.759070000000     0.0348357  
H101     H      0.127470000000     0.130500000000     0.258260000000     0.0401294  
H102     H      0.088530000000     0.134460000000     0.347100000000     0.042131   
H103     H      0.954950000000     0.926440000000     0.343900000000     0.037898   
H104     H      0.943390000000     0.840350000000     0.282760000000     0.0326036  
H105     H      0.936210000000     0.767360000000     0.026960000000     0.036195   
H106     H      0.843210000000     0.675290000000     0.074030000000     0.0372499  
H107     H      0.744490000000     0.785550000000     0.063980000000     0.0488049  
H108     H      0.755800000000     0.872530000000     0.995650000000     0.0417779  
H109     H      0.420480000000     0.260800000000     0.036540000000     0.0374133  
H110     H      0.325490000000     0.163890000000     0.070990000000     0.0437317  
H111     H      0.242440000000     0.279430000000     0.113940000000     0.0406194  
H112     H      0.277390000000     0.393670000000     0.105770000000     0.0366632  
H113     H      0.804270000000     0.042800000000     0.005010000000     0.0355894  
H114     H      0.893630000000     0.022670000000     0.021660000000     0.0491433  
H115     H      0.824670000000     0.937550000000     0.181080000000     0.0383381  
H116     H      0.727900000000     0.922340000000     0.231420000000     0.0334773  
H117     H      0.251820000000     0.987370000000     0.955370000000     0.0362081  
H118     H      0.354870000000     0.988260000000     0.959310000000     0.0470642  
H119     H      0.460780000000     0.197400000000     0.942820000000     0.0408227  
H120     H      0.420800000000     0.275360000000     0.913180000000     0.0356289  
H121     H      0.027320000000     0.696360000000     0.044410000000     0.00614976 
H122     H      0.009770000000     0.772610000000     0.093860000000     0.0337606  
H123     H      0.205060000000     0.926120000000     0.059230000000     0.0485579  
H124     H      0.251180000000     0.828200000000     0.950820000000     0.0612521  
H125     H      0.199510000000     0.304930000000     0.004460000000     0.042733   
H126     H      0.204820000000     0.406160000000     0.030090000000     0.0347471  
H127     H      0.004000000000     0.297490000000     0.074820000000     0.0391893  
H128     H      0.917310000000     0.184220000000     0.061760000000     0.0353561  
N1       N      0.550660000000     0.525380000000     0.873390000000    -0.185929   
N2       N      0.532590000000     0.539540000000     0.758190000000    -0.193236   
N3       N      0.550130000000     0.551540000000     0.375660000000    -0.182347   
N4       N      0.548850000000     0.553630000000     0.259360000000    -0.195262   
N5       N      0.515450000000     0.872730000000     0.484020000000    -0.179773   
N6       N      0.516000000000     0.754120000000     0.495830000000    -0.195021   
N7       N      0.482690000000     0.219750000000     0.621700000000    -0.189921   
N8       N      0.467030000000     0.324590000000     0.642090000000    -0.178724   
N9       N      0.605270000000     0.106040000000     0.852830000000    -0.188455   
N10      N      0.587240000000     0.087880000000     0.738700000000    -0.189251   
N11      N      0.575340000000     0.077850000000     0.239390000000    -0.197133   
N12      N      0.559520000000     0.081410000000     0.353070000000    -0.197965   
N13      N      0.590140000000     0.856310000000     0.006990000000    -0.193429   
N14      N      0.626690000000     0.759030000000     0.006360000000    -0.192918   
N15      N      0.534420000000     0.221480000000     0.129210000000    -0.164074   
N16      N      0.550150000000     0.343660000000     0.151790000000    -0.190099   
N17      N      0.830100000000     0.393150000000     0.472410000000    -0.191675   
N18      N      0.715200000000     0.274060000000     0.483860000000    -0.205668   
N19      N      0.208980000000     0.773690000000     0.621530000000    -0.18949    
N20      N      0.326020000000     0.887750000000     0.652250000000    -0.177766   
N21      N      0.843740000000     0.561970000000     0.585540000000    -0.182285   
N22      N      0.725840000000     0.564090000000     0.563890000000    -0.193018   
N23      N      0.307420000000     0.510170000000     0.615040000000    -0.200087   
N24      N      0.204840000000     0.524060000000     0.568370000000    -0.205663   
N25      N      0.093050000000     0.583280000000     0.840840000000    -0.184454   
N26      N      0.061340000000     0.586190000000     0.726210000000    -0.186009   
N27      N      0.086840000000     0.565550000000     0.345030000000    -0.192687   
N28      N      0.069220000000     0.554640000000     0.228330000000    -0.188949   
N29      N      0.913680000000     0.348430000000     0.990860000000    -0.184397   
N30      N      0.792490000000     0.229360000000     0.004460000000    -0.186285   
N31      N      0.387960000000     0.870770000000     0.124850000000    -0.18348    
N32      N      0.272610000000     0.746490000000     0.125200000000    -0.18532    
N33      N      0.782580000000     0.562250000000     0.012830000000    -0.170617   
N34      N      0.894740000000     0.554600000000     0.043580000000    -0.197503   
N35      N      0.326170000000     0.625270000000     0.988470000000    -0.167092   
N36      N      0.414570000000     0.597150000000     0.049420000000    -0.197118   
N37      N      0.829150000000     0.878490000000     0.622430000000    -0.179937   
N38      N      0.709690000000     0.761540000000     0.632640000000    -0.200268   
N39      N      0.340400000000     0.354780000000     0.481340000000    -0.180883   
N40      N      0.216080000000     0.239160000000     0.472810000000    -0.183632   
N41      N      0.712020000000     0.032420000000     0.562580000000    -0.18714    
N42      N      0.821050000000     0.040670000000     0.512810000000    -0.185031   
N43      N      0.214960000000     0.049950000000     0.562380000000    -0.173985   
N44      N      0.321860000000     0.040070000000     0.527270000000    -0.190844   
N45      N      0.057250000000     0.767050000000     0.446960000000    -0.186285   
N46      N      0.053590000000     0.883240000000     0.446150000000    -0.174025   
N47      N      0.978450000000     0.227900000000     0.627060000000    -0.161223   
N48      N      0.967110000000     0.340630000000     0.629240000000    -0.181127   
N49      N      0.060210000000     0.044360000000     0.852660000000    -0.187138   
N50      N      0.049480000000     0.058830000000     0.737930000000    -0.199232   
N51      N      0.016280000000     0.031280000000     0.350520000000    -0.187269   
N52      N      0.062650000000     0.025980000000     0.247960000000    -0.19926    
N53      N      0.786520000000     0.723330000000     0.074900000000    -0.179571   
N54      N      0.893830000000     0.829540000000     0.020780000000    -0.186006   
N55      N      0.275660000000     0.214750000000     0.092060000000    -0.184477   
N56      N      0.385430000000     0.327060000000     0.051580000000    -0.198059   
N57      N      0.864560000000     0.978060000000     0.102390000000    -0.164213   
N58      N      0.763830000000     0.007390000000     0.085210000000    -0.200753   
N59      N      0.415100000000     0.093110000000     0.957360000000    -0.181803   
N60      N      0.295770000000     0.093070000000     0.951710000000    -0.174792   
N61      N      0.103870000000     0.855860000000     0.076830000000    -0.178117   
N62      N      0.126730000000     0.767210000000     0.021780000000    -0.195214   
N63      N      0.105170000000     0.359500000000     0.056080000000    -0.183128   
N64      N      0.097980000000     0.241150000000     0.023600000000    -0.183319   
O1       O      0.050110000000     0.128350000000     0.026280000000    -0.435976   
O2       O      0.004980000000     0.889180000000     0.002980000000    -0.397128   
O3       O      0.106470000000     0.086840000000     0.937460000000    -0.456137   
O4       O      0.927120000000     0.927930000000     0.124720000000    -0.395601   
O5       O      0.062680000000     0.981840000000     0.927470000000    -0.445907   
O6       O      0.975220000000     0.036460000000     0.100990000000    -0.479299   
O7       O      0.957160000000     0.941990000000     0.020130000000    -0.424374   
O8       O      0.151150000000     0.182790000000     0.004990000000    -0.360371   
O9       O      0.087580000000     0.082900000000     0.166530000000    -0.492857   
O10      O      0.187910000000     0.033860000000     0.978340000000    -0.475403   
O11      O      0.205460000000     0.109020000000     0.071120000000    -0.437851   
O12      O      0.030640000000     0.891820000000     0.098000000000    -0.346527   
O13      O      0.127480000000     0.960000000000     0.068350000000    -0.422983   
O14      O      0.164070000000     0.165140000000     0.100230000000    -0.420944   
O15      O      0.047200000000     0.980050000000     0.162360000000    -0.452698   
O16      O      0.231810000000     0.141170000000     0.965670000000    -0.40366    
O17      O      0.080950000000     0.033890000000     0.047630000000    -0.600333   
O18      O      0.040100000000     0.075480000000     0.435850000000    -0.444441   
O19      O      0.933820000000     0.115390000000     0.622290000000    -0.423582   
O20      O      0.879290000000     0.988590000000     0.499970000000    -0.406813   
O21      O      0.115770000000     0.185200000000     0.513290000000    -0.41276    
O22      O      0.934070000000     0.092870000000     0.518160000000    -0.429051   
O23      O      0.151410000000     0.124710000000     0.481490000000    -0.374767   
O24      O      0.039800000000     0.180950000000     0.601500000000    -0.432274   
O25      O      0.955600000000     0.981870000000     0.426460000000    -0.454076   
O26      O      0.104310000000     0.009740000000     0.556430000000    -0.411053   
O27      O      0.888200000000     0.989560000000     0.600530000000    -0.395236   
O28      O      0.005910000000     0.926520000000     0.497490000000    -0.432551   
O29      O      0.095070000000     0.110530000000     0.657050000000    -0.466259   
O30      O      0.990030000000     0.049270000000     0.657020000000    -0.454529   
O31      O      0.092380000000     0.996310000000     0.447740000000    -0.408184   
O32      O      0.166740000000     0.112650000000     0.578540000000    -0.383809   
O33      O      0.926330000000     0.926710000000     0.577840000000    -0.414604   
O34      O      0.021430000000     0.054330000000     0.545810000000    -0.625393   
O35      O      0.027410000000     0.414300000000     0.977300000000    -0.38413    
O36      O      0.090710000000     0.664420000000     0.991930000000    -0.449938   
O37      O      0.956440000000     0.512750000000     0.090870000000    -0.424144   
O38      O      0.147750000000     0.629840000000     0.924920000000    -0.398561   
O39      O      0.997800000000     0.581550000000     0.025660000000    -0.4742     
O40      O      0.094030000000     0.523860000000     0.917740000000    -0.469165   
O41      O      0.191350000000     0.723610000000     0.003520000000    -0.374377   
O42      O      0.975070000000     0.456840000000     0.008770000000    -0.452788   
O43      O      0.213940000000     0.570700000000     0.979190000000    -0.48834    
O44      O      0.058620000000     0.594880000000     0.140500000000    -0.429258   
O45      O      0.053340000000     0.417070000000     0.076360000000    -0.417352   
O46      O      0.227780000000     0.649740000000     0.077080000000    -0.406521   
O47      O      0.163130000000     0.685530000000     0.098110000000    -0.439231   
O48      O      0.150950000000     0.470950000000     0.046220000000    -0.439558   
O49      O      0.268080000000     0.679920000000     0.975490000000    -0.393431   
O50      O      0.059500000000     0.502560000000     0.147410000000    -0.45922    
O51      O      0.096700000000     0.560490000000     0.035510000000    -0.530854   
O52      O      0.941440000000     0.451440000000     0.462880000000    -0.467707   
O53      O      0.010660000000     0.666710000000     0.489450000000    -0.452586   
O54      O      0.915000000000     0.524540000000     0.622060000000    -0.364423   
O55      O      0.121220000000     0.621770000000     0.428050000000    -0.461834   
O56      O      0.935010000000     0.578490000000     0.546180000000    -0.480227   
O57      O      0.056340000000     0.515750000000     0.429780000000    -0.488275   
O58      O      0.115460000000     0.715380000000     0.478380000000    -0.433695   
O59      O      0.902770000000     0.456320000000     0.539030000000    -0.452053   
O60      O      0.104430000000     0.489020000000     0.525330000000    -0.501993   
O61      O      0.026480000000     0.619240000000     0.643780000000    -0.420356   
O62      O      0.935460000000     0.419370000000     0.634350000000    -0.380068   
O63      O      0.161460000000     0.676050000000     0.577230000000    -0.480232   
O64      O      0.103090000000     0.721730000000     0.580370000000    -0.443633   
O65      O      0.990880000000     0.421690000000     0.563490000000    -0.508071   
O66      O      0.172830000000     0.594370000000     0.529580000000    -0.484971   
O67      O      0.043250000000     0.536060000000     0.643070000000    -0.458854   
O68      O      0.039130000000     0.572320000000     0.532640000000    -0.519078   
O69      O      0.468930000000     0.042960000000     0.999210000000    -0.421723   
O70      O      0.570220000000     0.938450000000     0.971440000000    -0.432034   
O71      O      0.623570000000     0.150620000000     0.939550000000    -0.403314   
O72      O      0.500630000000     0.933950000000     0.120150000000    -0.471909   
O73      O      0.574460000000     0.044960000000     0.931630000000    -0.463209   
O74      O      0.441710000000     0.979390000000     0.092580000000    -0.40314    
O75      O      0.582620000000     0.928570000000     0.059660000000    -0.52231    
O76      O      0.524200000000     0.145750000000     0.986970000000    -0.442803   
O77      O      0.541240000000     0.074740000000     0.148280000000    -0.453479   
O78      O      0.706250000000     0.125330000000     0.979090000000    -0.419608   
O79      O      0.585510000000     0.173400000000     0.089120000000    -0.433792   
O80      O      0.685690000000     0.032140000000     0.108820000000    -0.469753   
O81      O      0.692640000000     0.016990000000     0.022090000000    -0.470969   
O82      O      0.474780000000     0.115530000000     0.090630000000    -0.375571   
O83      O      0.607410000000     0.039330000000     0.170400000000    -0.505354   
O84      O      0.691790000000     0.176670000000     0.044800000000    -0.422329   
O85      O      0.581550000000     0.047340000000     0.045700000000    -0.529479   
O86      O      0.392810000000     0.999410000000     0.541880000000    -0.414146   
O87      O      0.576190000000     0.985810000000     0.494570000000    -0.419319   
O88      O      0.508210000000     0.093750000000     0.427090000000    -0.451263   
O89      O      0.432460000000     0.943220000000     0.624060000000    -0.489768   
O90      O      0.599170000000     0.091270000000     0.442370000000    -0.501275   
O91      O      0.392310000000     0.002070000000     0.651080000000    -0.388451   
O92      O      0.480610000000     0.929150000000     0.531970000000    -0.427574   
O93      O      0.427100000000     0.092750000000     0.500110000000    -0.478325   
O94      O      0.523150000000     0.085480000000     0.661650000000    -0.437318   
O95      O      0.672000000000     0.172760000000     0.525230000000    -0.473909   
O96      O      0.531030000000     0.189100000000     0.559850000000    -0.453542   
O97      O      0.604450000000     0.975490000000     0.588530000000    -0.391836   
O98      O      0.651860000000     0.077740000000     0.586560000000    -0.45558    
O99      O      0.447120000000     0.112990000000     0.603750000000    -0.429113   
O100     O      0.559300000000     0.017780000000     0.665610000000    -0.437509   
O101     O      0.605850000000     0.200820000000     0.481790000000    -0.49069    
O102     O      0.535600000000     0.070020000000     0.548740000000    -0.535657   
O103     O      0.494620000000     0.380130000000     0.034180000000    -0.428033   
O104     O      0.569530000000     0.655090000000     0.035930000000    -0.46242    
O105     O      0.447340000000     0.522960000000     0.069470000000    -0.502795   
O106     O      0.597440000000     0.573780000000     0.955910000000    -0.460236   
O107     O      0.495500000000     0.608680000000     0.117300000000    -0.452003   
O108     O      0.556690000000     0.468740000000     0.953030000000    -0.429717   
O109     O      0.662950000000     0.683060000000     0.003860000000    -0.363338   
O110     O      0.449760000000     0.436700000000     0.030650000000    -0.46464    
O111     O      0.672130000000     0.513050000000     0.016750000000    -0.507425   
O112     O      0.596150000000     0.602060000000     0.177580000000    -0.465191   
O113     O      0.507240000000     0.411490000000     0.131860000000    -0.438692   
O114     O      0.713080000000     0.612210000000     0.084240000000    -0.413124   
O115     O      0.680950000000     0.676860000000     0.102760000000    -0.442497   
O116     O      0.605160000000     0.441230000000     0.103870000000    -0.422464   
O117     O      0.723750000000     0.611430000000     0.976010000000    -0.387179   
O118     O      0.501690000000     0.508720000000     0.174270000000    -0.45801    
O119     O      0.569740000000     0.540240000000     0.067110000000    -0.531875   
O120     O      0.451370000000     0.406110000000     0.507730000000    -0.429957   
O121     O      0.482410000000     0.662040000000     0.550980000000    -0.471853   
O122     O      0.377550000000     0.470160000000     0.617680000000    -0.44358    
O123     O      0.556650000000     0.602920000000     0.454870000000    -0.475924   
O124     O      0.417490000000     0.574800000000     0.618760000000    -0.520227   
O125     O      0.553590000000     0.508270000000     0.463850000000    -0.39702    
O126     O      0.575760000000     0.700690000000     0.512750000000    -0.44663    
O127     O      0.399520000000     0.452580000000     0.526920000000    -0.419604   
O128     O      0.616980000000     0.523000000000     0.579190000000    -0.434276   
O129     O      0.523250000000     0.596680000000     0.681580000000    -0.484949   
O130     O      0.408740000000     0.379810000000     0.618330000000    -0.375711   
O131     O      0.653500000000     0.665920000000     0.586350000000    -0.482026   
O132     O      0.595990000000     0.702530000000     0.619660000000    -0.46432    
O133     O      0.515750000000     0.430900000000     0.611890000000    -0.465576   
O134     O      0.655300000000     0.591690000000     0.512890000000    -0.438636   
O135     O      0.492800000000     0.493230000000     0.672090000000    -0.407535   
O136     O      0.517270000000     0.559550000000     0.565300000000    -0.520037   
S1       S      0.600350000000     0.677240000000     0.766550000000    -0.0173537  
S2       S      0.589260000000     0.686990000000     0.253880000000    -0.0324693  
S3       S      0.379910000000     0.681860000000     0.507830000000    -0.00801029 
S4       S      0.333490000000     0.245920000000     0.659470000000    -0.0118074  
S5       S      0.646850000000     0.010610000000     0.744160000000    -0.00759456 
S6       S      0.645910000000     0.032830000000     0.378800000000    -0.0261786  
S7       S      0.642740000000     0.764910000000     0.122900000000    -0.0856436  
S8       S      0.682320000000     0.398290000000     0.179330000000    -0.0333913  
S9       S      0.756640000000     0.208060000000     0.421140000000    -0.0449089  
S10      S      0.260010000000     0.950170000000     0.683430000000    -0.00594199 
S11      S      0.787660000000     0.673890000000     0.493230000000    -0.0303246  
S12      S      0.219470000000     0.608800000000     0.650100000000    -0.00685662 
S13      S      0.089610000000     0.715570000000     0.730120000000    -0.0259561  
S14      S      0.006110000000     0.417210000000     0.237160000000    -0.0245925  
S15      S      0.831500000000     0.161660000000     0.939640000000    -0.030505   
S16      S      0.336660000000     0.682440000000     0.166340000000    -0.0231614  
S17      S      0.851690000000     0.505750000000     0.148380000000    -0.028844   
S18      S      0.476680000000     0.718230000000     0.100380000000    -0.0311652  
S19      S      0.770910000000     0.687870000000     0.651380000000    -0.0168097  
S20      S      0.150960000000     0.309790000000     0.460270000000    -0.0182846  
S21      S      0.878820000000     0.175650000000     0.495690000000    -0.0200354  
S22      S      0.249230000000     0.905140000000     0.522610000000    -0.0240277  
S23      S      0.180560000000     0.958530000000     0.408910000000    -0.00631366 
S24      S      0.098900000000     0.420740000000     0.654690000000    -0.0186259  
S25      S      0.956900000000     0.926900000000     0.724780000000    -0.0148766  
S26      S      0.987790000000     0.888580000000     0.248280000000     0.00518373 
S27      S      0.816650000000     0.882050000000     0.984730000000    -0.019357   
S28      S      0.328900000000     0.402650000000     0.075480000000    -0.0507559  
S29      S      0.713100000000     0.953800000000     0.188220000000    -0.0502886  
S30      S      0.356980000000     0.225420000000     0.920350000000    -0.00723557 
S31      S      0.250430000000     0.866350000000     0.991740000000    -0.0364195  
S32      S      0.962760000000     0.170780000000     0.042120000000    -0.0244323  


