data_structure

_audit_creation_method RASPA-1.0
_audit_creation_date 2023-5-19
_audit_author_name 'Poobodin Mano'

_cell_length_a    30.2375
_cell_length_b    30.1414
_cell_length_c    28.6764
_cell_angle_alpha 90
_cell_angle_beta  90
_cell_angle_gamma 90
_cell_volume      26135.7

_symmetry_cell_setting          triclinic
_symmetry_space_group_name_Hall 'P 1'
_symmetry_space_group_name_H-M  'P 1'
_symmetry_Int_Tables_number     1

_symmetry_equiv_pos_as_xyz 'x,y,z'

loop_
_atom_site_label
_atom_site_type_symbol
_atom_site_fract_x
_atom_site_fract_y
_atom_site_fract_z
_atom_site_charge
C1       C      0.430030000000     0.429920000000     0.093630000000     0.415322   
C2       C      0.097110000000     0.100480000000     0.092290000000     0.417269   
C3       C      0.086150000000     0.442860000000     0.113610000000     0.418629   
C4       C      0.440110000000     0.088410000000     0.108960000000     0.394736   
C5       C      0.439220000000     0.088070000000     0.473320000000     0.387182   
C6       C      0.097000000000     0.431740000000     0.489160000000     0.414018   
C7       C      0.441700000000     0.440780000000     0.471840000000     0.408827   
C8       C      0.086290000000     0.086470000000     0.470390000000     0.387497   
C9       C      0.347190000000     0.346830000000     0.236610000000     0.391796   
C10      C      0.181470000000     0.183140000000     0.234670000000     0.393219   
C11      C      0.340080000000     0.189730000000     0.225710000000     0.419672   
C12      C      0.188430000000     0.341510000000     0.225180000000     0.39696    
C13      C      0.184600000000     0.344980000000     0.350160000000     0.389532   
C14      C      0.336460000000     0.189580000000     0.359400000000     0.411409   
C15      C      0.337580000000     0.338670000000     0.360600000000     0.387643   
C16      C      0.188590000000     0.190080000000     0.357900000000     0.408253   
C17      C      0.171030000000     0.114680000000     0.187600000000    -0.019176   
C18      C      0.111960000000     0.173190000000     0.189620000000    -0.105625   
C19      C      0.167710000000     0.113330000000     0.134340000000    -0.00783863 
C20      C      0.109060000000     0.171670000000     0.136330000000     0.323824   
C21      C      0.148500000000     0.090100000000     0.413630000000    -0.0145299  
C22      C      0.089310000000     0.148120000000     0.412980000000    -0.103137   
C23      C      0.183920000000     0.126520000000     0.412820000000    -0.0160742  
C24      C      0.124540000000     0.184580000000     0.413460000000     0.322766   
C25      C      0.183320000000     0.405170000000     0.170420000000    -0.0189622  
C26      C      0.124490000000     0.346220000000     0.171310000000    -0.106396   
C27      C      0.147320000000     0.440870000000     0.171230000000    -0.00669206 
C28      C      0.089040000000     0.382210000000     0.173520000000     0.325014   
C29      C      0.379010000000     0.091540000000     0.166700000000    -0.0189415  
C30      C      0.438230000000     0.149720000000     0.166610000000    -0.110407   
C31      C      0.343700000000     0.127750000000     0.169140000000    -0.00674384 
C32      C      0.402980000000     0.185980000000     0.168760000000     0.327592   
C33      C      0.343010000000     0.402500000000     0.415350000000    -0.0186377  
C34      C      0.400050000000     0.342140000000     0.416780000000    -0.103718   
C35      C      0.379960000000     0.437330000000     0.414810000000    -0.00787811 
C36      C      0.436810000000     0.377050000000     0.415460000000     0.321663   
C37      C      0.434510000000     0.150720000000     0.417230000000    -0.0190922  
C38      C      0.376930000000     0.090860000000     0.416960000000    -0.104675   
C39      C      0.398050000000     0.185910000000     0.416380000000    -0.00744392 
C40      C      0.340520000000     0.126120000000     0.416100000000     0.322941   
C41      C      0.173310000000     0.414580000000     0.394940000000    -0.0197674  
C42      C      0.115600000000     0.354500000000     0.395750000000    -0.111212   
C43      C      0.168060000000     0.419860000000     0.447740000000    -0.00745823 
C44      C      0.111590000000     0.359360000000     0.448590000000     0.328517   
C45      C      0.359340000000     0.416500000000     0.191930000000    -0.019631   
C46      C      0.415600000000     0.355320000000     0.189380000000    -0.110435   
C47      C      0.360640000000     0.419510000000     0.138610000000    -0.00705922 
C48      C      0.416170000000     0.358190000000     0.136070000000     0.330078   
C49      C      0.430030000000     0.429920000000     0.593630000000     0.415383   
C50      C      0.097110000000     0.100480000000     0.592290000000     0.417305   
C51      C      0.086150000000     0.442860000000     0.613610000000     0.418651   
C52      C      0.440110000000     0.088410000000     0.608960000000     0.394773   
C53      C      0.439220000000     0.088070000000     0.973320000000     0.387148   
C54      C      0.097000000000     0.431740000000     0.989160000000     0.414775   
C55      C      0.441700000000     0.440780000000     0.971840000000     0.408791   
C56      C      0.086290000000     0.086470000000     0.970390000000     0.38746    
C57      C      0.347190000000     0.346830000000     0.736610000000     0.391799   
C58      C      0.181470000000     0.183140000000     0.734670000000     0.393269   
C59      C      0.340080000000     0.189730000000     0.725710000000     0.419675   
C60      C      0.188430000000     0.341510000000     0.725180000000     0.396968   
C61      C      0.184600000000     0.344980000000     0.850170000000     0.389491   
C62      C      0.336460000000     0.189580000000     0.859400000000     0.411412   
C63      C      0.337580000000     0.338670000000     0.860600000000     0.387647   
C64      C      0.188590000000     0.190080000000     0.857900000000     0.408258   
C65      C      0.171030000000     0.114680000000     0.687600000000    -0.0191746  
C66      C      0.111960000000     0.173190000000     0.689630000000    -0.105591   
C67      C      0.167710000000     0.113330000000     0.634340000000    -0.00784714 
C68      C      0.109060000000     0.171670000000     0.636330000000     0.323787   
C69      C      0.148500000000     0.090100000000     0.913620000000    -0.0145528  
C70      C      0.089310000000     0.148120000000     0.912980000000    -0.103069   
C71      C      0.183920000000     0.126520000000     0.912820000000    -0.0160682  
C72      C      0.124540000000     0.184580000000     0.913460000000     0.322745   
C73      C      0.183320000000     0.405170000000     0.670420000000    -0.0189352  
C74      C      0.124490000000     0.346220000000     0.671310000000    -0.106367   
C75      C      0.147320000000     0.440870000000     0.671230000000    -0.00669781 
C76      C      0.089040000000     0.382210000000     0.673520000000     0.32501    
C77      C      0.379010000000     0.091540000000     0.666700000000    -0.018937   
C78      C      0.438230000000     0.149720000000     0.666610000000    -0.1104     
C79      C      0.343700000000     0.127750000000     0.669140000000    -0.00674199 
C80      C      0.402980000000     0.185980000000     0.668760000000     0.327588   
C81      C      0.343010000000     0.402500000000     0.915350000000    -0.0186441  
C82      C      0.400050000000     0.342140000000     0.916780000000    -0.103726   
C83      C      0.379960000000     0.437330000000     0.914810000000    -0.00787074 
C84      C      0.436810000000     0.377050000000     0.915460000000     0.321672   
C85      C      0.434510000000     0.150720000000     0.917230000000    -0.0190824  
C86      C      0.376930000000     0.090860000000     0.916960000000    -0.104667   
C87      C      0.398050000000     0.185910000000     0.916380000000    -0.00745643 
C88      C      0.340520000000     0.126120000000     0.916110000000     0.322882   
C89      C      0.173310000000     0.414580000000     0.894940000000    -0.0197671  
C90      C      0.115600000000     0.354500000000     0.895750000000    -0.111253   
C91      C      0.168060000000     0.419860000000     0.947740000000    -0.00744184 
C92      C      0.111590000000     0.359360000000     0.948590000000     0.328558   
C93      C      0.359340000000     0.416500000000     0.691930000000    -0.0196288  
C94      C      0.415600000000     0.355320000000     0.689380000000    -0.110434   
C95      C      0.360640000000     0.419510000000     0.638610000000    -0.00706084 
C96      C      0.416170000000     0.358190000000     0.636070000000     0.330079   
C97      C      0.430030000000     0.929920000000     0.093630000000     0.415305   
C98      C      0.097110000000     0.600480000000     0.092290000000     0.41723    
C99      C      0.086150000000     0.942870000000     0.113610000000     0.418648   
C100     C      0.440110000000     0.588410000000     0.108960000000     0.394733   
C101     C      0.439220000000     0.588070000000     0.473320000000     0.387179   
C102     C      0.097000000000     0.931740000000     0.489160000000     0.414012   
C103     C      0.441700000000     0.940780000000     0.471840000000     0.408809   
C104     C      0.086290000000     0.586470000000     0.470390000000     0.387502   
C105     C      0.347190000000     0.846830000000     0.236610000000     0.391661   
C106     C      0.181470000000     0.683140000000     0.234670000000     0.393219   
C107     C      0.340080000000     0.689730000000     0.225710000000     0.41968    
C108     C      0.188430000000     0.841510000000     0.225180000000     0.397049   
C109     C      0.184600000000     0.844980000000     0.350160000000     0.389537   
C110     C      0.336460000000     0.689590000000     0.359400000000     0.411429   
C111     C      0.337580000000     0.838670000000     0.360600000000     0.387507   
C112     C      0.188590000000     0.690080000000     0.357900000000     0.408253   
C113     C      0.171030000000     0.614680000000     0.187600000000    -0.0191649  
C114     C      0.111960000000     0.673190000000     0.189620000000    -0.105624   
C115     C      0.167710000000     0.613330000000     0.134340000000    -0.00787487 
C116     C      0.109060000000     0.671670000000     0.136330000000     0.323823   
C117     C      0.148500000000     0.590100000000     0.413630000000    -0.0145633  
C118     C      0.089310000000     0.648120000000     0.412980000000    -0.103138   
C119     C      0.183920000000     0.626520000000     0.412820000000    -0.0160633  
C120     C      0.124540000000     0.684580000000     0.413460000000     0.322766   
C121     C      0.183320000000     0.905170000000     0.170420000000    -0.0189531  
C122     C      0.124490000000     0.846220000000     0.171310000000    -0.106393   
C123     C      0.147320000000     0.940870000000     0.171230000000    -0.00670772 
C124     C      0.089040000000     0.882210000000     0.173520000000     0.325015   
C125     C      0.379010000000     0.591540000000     0.166700000000    -0.018949   
C126     C      0.438230000000     0.649720000000     0.166610000000    -0.110449   
C127     C      0.343700000000     0.627750000000     0.169140000000    -0.00673834 
C128     C      0.402980000000     0.685980000000     0.168760000000     0.327731   
C129     C      0.343010000000     0.902500000000     0.415350000000    -0.0186405  
C130     C      0.400050000000     0.842140000000     0.416780000000    -0.1037     
C131     C      0.379960000000     0.937330000000     0.414810000000    -0.00787219 
C132     C      0.436810000000     0.877050000000     0.415460000000     0.321605   
C133     C      0.434510000000     0.650720000000     0.417230000000    -0.0190895  
C134     C      0.376930000000     0.590860000000     0.416960000000    -0.10468    
C135     C      0.398050000000     0.685910000000     0.416380000000    -0.00745394 
C136     C      0.340520000000     0.626120000000     0.416100000000     0.322945   
C137     C      0.173310000000     0.914580000000     0.394940000000    -0.019734   
C138     C      0.115600000000     0.854500000000     0.395750000000    -0.111165   
C139     C      0.168060000000     0.919860000000     0.447740000000    -0.00748347 
C140     C      0.111590000000     0.859360000000     0.448590000000     0.328502   
C141     C      0.359340000000     0.916500000000     0.191930000000    -0.0196368  
C142     C      0.415600000000     0.855320000000     0.189380000000    -0.110443   
C143     C      0.360640000000     0.919510000000     0.138610000000    -0.00705876 
C144     C      0.416170000000     0.858190000000     0.136070000000     0.330081   
C145     C      0.430030000000     0.929920000000     0.593630000000     0.415367   
C146     C      0.097110000000     0.600480000000     0.592290000000     0.417266   
C147     C      0.086150000000     0.942870000000     0.613610000000     0.41867    
C148     C      0.440110000000     0.588410000000     0.608960000000     0.39477    
C149     C      0.439220000000     0.588070000000     0.973320000000     0.387145   
C150     C      0.097000000000     0.931740000000     0.989160000000     0.414769   
C151     C      0.441700000000     0.940780000000     0.971840000000     0.408773   
C152     C      0.086290000000     0.586470000000     0.970390000000     0.387465   
C153     C      0.347190000000     0.846830000000     0.736610000000     0.391664   
C154     C      0.181470000000     0.683140000000     0.734670000000     0.393269   
C155     C      0.340080000000     0.689730000000     0.725710000000     0.419683   
C156     C      0.188430000000     0.841510000000     0.725180000000     0.397056   
C157     C      0.184600000000     0.844980000000     0.850170000000     0.389496   
C158     C      0.336460000000     0.689590000000     0.859400000000     0.411432   
C159     C      0.337580000000     0.838670000000     0.860600000000     0.387512   
C160     C      0.188590000000     0.690080000000     0.857900000000     0.408258   
C161     C      0.171030000000     0.614680000000     0.687600000000    -0.0191635  
C162     C      0.111960000000     0.673190000000     0.689630000000    -0.105591   
C163     C      0.167710000000     0.613330000000     0.634340000000    -0.0078834  
C164     C      0.109060000000     0.671670000000     0.636330000000     0.323786   
C165     C      0.148500000000     0.590100000000     0.913620000000    -0.0145862  
C166     C      0.089310000000     0.648120000000     0.912980000000    -0.10307    
C167     C      0.183920000000     0.626520000000     0.912820000000    -0.0160573  
C168     C      0.124540000000     0.684580000000     0.913460000000     0.322745   
C169     C      0.183320000000     0.905170000000     0.670420000000    -0.0189261  
C170     C      0.124490000000     0.846220000000     0.671310000000    -0.106364   
C171     C      0.147320000000     0.940870000000     0.671230000000    -0.00671346 
C172     C      0.089040000000     0.882210000000     0.673520000000     0.325011   
C173     C      0.379010000000     0.591540000000     0.666700000000    -0.0189445  
C174     C      0.438230000000     0.649720000000     0.666610000000    -0.110442   
C175     C      0.343700000000     0.627750000000     0.669140000000    -0.00673648 
C176     C      0.402980000000     0.685980000000     0.668760000000     0.327728   
C177     C      0.343010000000     0.902500000000     0.915350000000    -0.0186468  
C178     C      0.400050000000     0.842140000000     0.916780000000    -0.103707   
C179     C      0.379960000000     0.937330000000     0.914810000000    -0.00786482 
C180     C      0.436810000000     0.877050000000     0.915460000000     0.321615   
C181     C      0.434510000000     0.650720000000     0.917230000000    -0.0190797  
C182     C      0.376930000000     0.590860000000     0.916960000000    -0.104673   
C183     C      0.398050000000     0.685910000000     0.916380000000    -0.00746644 
C184     C      0.340520000000     0.626120000000     0.916110000000     0.322887   
C185     C      0.173310000000     0.914580000000     0.894940000000    -0.0197337  
C186     C      0.115600000000     0.854500000000     0.895750000000    -0.111205   
C187     C      0.168060000000     0.919860000000     0.947740000000    -0.00746711 
C188     C      0.111590000000     0.859360000000     0.948590000000     0.328543   
C189     C      0.359340000000     0.916500000000     0.691930000000    -0.0196345  
C190     C      0.415600000000     0.855320000000     0.689380000000    -0.110442   
C191     C      0.360640000000     0.919510000000     0.638610000000    -0.00706037 
C192     C      0.416170000000     0.858190000000     0.636070000000     0.330081   
C193     C      0.930030000000     0.429920000000     0.093630000000     0.415308   
C194     C      0.597110000000     0.100480000000     0.092290000000     0.417272   
C195     C      0.586150000000     0.442860000000     0.113610000000     0.418635   
C196     C      0.940110000000     0.088410000000     0.108960000000     0.394733   
C197     C      0.939220000000     0.088070000000     0.473320000000     0.387176   
C198     C      0.597000000000     0.431740000000     0.489160000000     0.41397    
C199     C      0.941700000000     0.440780000000     0.471840000000     0.408778   
C200     C      0.586290000000     0.086470000000     0.470390000000     0.387502   
C201     C      0.847190000000     0.346830000000     0.236610000000     0.391773   
C202     C      0.681470000000     0.183140000000     0.234670000000     0.393217   
C203     C      0.840080000000     0.189730000000     0.225710000000     0.419558   
C204     C      0.688430000000     0.341510000000     0.225180000000     0.396963   
C205     C      0.684600000000     0.344980000000     0.350160000000     0.389534   
C206     C      0.836460000000     0.189580000000     0.359400000000     0.411388   
C207     C      0.837580000000     0.338670000000     0.360600000000     0.387621   
C208     C      0.688590000000     0.190080000000     0.357900000000     0.40816    
C209     C      0.671030000000     0.114680000000     0.187600000000    -0.0192502  
C210     C      0.611960000000     0.173190000000     0.189620000000    -0.105682   
C211     C      0.667700000000     0.113330000000     0.134340000000    -0.00773212 
C212     C      0.609050000000     0.171670000000     0.136330000000     0.323957   
C213     C      0.648500000000     0.090100000000     0.413630000000    -0.0145294  
C214     C      0.589310000000     0.148120000000     0.412980000000    -0.103139   
C215     C      0.683920000000     0.126520000000     0.412820000000    -0.0160778  
C216     C      0.624540000000     0.184580000000     0.413460000000     0.322766   
C217     C      0.683320000000     0.405170000000     0.170420000000    -0.0189622  
C218     C      0.624490000000     0.346220000000     0.171310000000    -0.106396   
C219     C      0.647320000000     0.440870000000     0.171230000000    -0.00669268 
C220     C      0.589040000000     0.382210000000     0.173520000000     0.325015   
C221     C      0.879010000000     0.091540000000     0.166700000000    -0.0189353  
C222     C      0.938230000000     0.149720000000     0.166610000000    -0.110305   
C223     C      0.843700000000     0.127750000000     0.169140000000    -0.00675785 
C224     C      0.902970000000     0.185980000000     0.168760000000     0.327535   
C225     C      0.843020000000     0.402500000000     0.415350000000    -0.0185845  
C226     C      0.900050000000     0.342140000000     0.416780000000    -0.103705   
C227     C      0.879960000000     0.437330000000     0.414810000000    -0.00786354 
C228     C      0.936810000000     0.377050000000     0.415460000000     0.321631   
C229     C      0.934510000000     0.150720000000     0.417230000000    -0.0190907  
C230     C      0.876930000000     0.090860000000     0.416960000000    -0.104697   
C231     C      0.898050000000     0.185910000000     0.416380000000    -0.00742573 
C232     C      0.840520000000     0.126120000000     0.416100000000     0.322963   
C233     C      0.673310000000     0.414580000000     0.394940000000    -0.0197834  
C234     C      0.615600000000     0.354500000000     0.395750000000    -0.111207   
C235     C      0.668060000000     0.419860000000     0.447740000000    -0.007416   
C236     C      0.611590000000     0.359360000000     0.448590000000     0.328491   
C237     C      0.859340000000     0.416500000000     0.191930000000    -0.0196111  
C238     C      0.915600000000     0.355320000000     0.189380000000    -0.110392   
C239     C      0.860640000000     0.419510000000     0.138610000000    -0.00706697 
C240     C      0.916170000000     0.358190000000     0.136070000000     0.329947   
C241     C      0.930030000000     0.429920000000     0.593630000000     0.41537    
C242     C      0.597110000000     0.100480000000     0.592290000000     0.417308   
C243     C      0.586150000000     0.442860000000     0.613610000000     0.418657   
C244     C      0.940110000000     0.088410000000     0.608960000000     0.394771   
C245     C      0.939220000000     0.088070000000     0.973320000000     0.387142   
C246     C      0.597000000000     0.431740000000     0.989160000000     0.414727   
C247     C      0.941700000000     0.440780000000     0.971840000000     0.408741   
C248     C      0.586290000000     0.086470000000     0.970390000000     0.387464   
C249     C      0.847190000000     0.346830000000     0.736610000000     0.391776   
C250     C      0.681470000000     0.183140000000     0.734670000000     0.393267   
C251     C      0.840080000000     0.189730000000     0.725710000000     0.419561   
C252     C      0.688430000000     0.341510000000     0.725180000000     0.39697    
C253     C      0.684600000000     0.344980000000     0.850170000000     0.389493   
C254     C      0.836460000000     0.189580000000     0.859400000000     0.411391   
C255     C      0.837580000000     0.338670000000     0.860600000000     0.387625   
C256     C      0.688590000000     0.190080000000     0.857900000000     0.408165   
C257     C      0.671030000000     0.114680000000     0.687600000000    -0.0192488  
C258     C      0.611960000000     0.173190000000     0.689630000000    -0.105649   
C259     C      0.667700000000     0.113330000000     0.634340000000    -0.00774063 
C260     C      0.609050000000     0.171670000000     0.636330000000     0.323919   
C261     C      0.648500000000     0.090100000000     0.913620000000    -0.0145523  
C262     C      0.589310000000     0.148120000000     0.912980000000    -0.103071   
C263     C      0.683920000000     0.126520000000     0.912820000000    -0.0160718  
C264     C      0.624540000000     0.184580000000     0.913460000000     0.322745   
C265     C      0.683320000000     0.405170000000     0.670420000000    -0.0189352  
C266     C      0.624490000000     0.346220000000     0.671310000000    -0.106367   
C267     C      0.647320000000     0.440870000000     0.671230000000    -0.00669842 
C268     C      0.589040000000     0.382210000000     0.673520000000     0.32501    
C269     C      0.879010000000     0.091540000000     0.666700000000    -0.0189308  
C270     C      0.938230000000     0.149720000000     0.666610000000    -0.110298   
C271     C      0.843700000000     0.127750000000     0.669140000000    -0.006756   
C272     C      0.902970000000     0.185980000000     0.668760000000     0.327531   
C273     C      0.843020000000     0.402500000000     0.915350000000    -0.0185908  
C274     C      0.900050000000     0.342140000000     0.916780000000    -0.103713   
C275     C      0.879960000000     0.437330000000     0.914810000000    -0.00785618 
C276     C      0.936810000000     0.377050000000     0.915460000000     0.32164    
C277     C      0.934510000000     0.150720000000     0.917230000000    -0.0190808  
C278     C      0.876930000000     0.090860000000     0.916960000000    -0.104689   
C279     C      0.898050000000     0.185910000000     0.916380000000    -0.00743823 
C280     C      0.840520000000     0.126120000000     0.916110000000     0.322904   
C281     C      0.673310000000     0.414580000000     0.894940000000    -0.0197831  
C282     C      0.615600000000     0.354500000000     0.895750000000    -0.111247   
C283     C      0.668060000000     0.419860000000     0.947740000000    -0.00739959 
C284     C      0.611590000000     0.359360000000     0.948590000000     0.328533   
C285     C      0.859340000000     0.416500000000     0.691930000000    -0.0196089  
C286     C      0.915600000000     0.355320000000     0.689380000000    -0.110391   
C287     C      0.860640000000     0.419510000000     0.638610000000    -0.00706858 
C288     C      0.916170000000     0.358190000000     0.636070000000     0.329947   
C289     C      0.930030000000     0.929920000000     0.093630000000     0.415292   
C290     C      0.597110000000     0.600480000000     0.092290000000     0.417233   
C291     C      0.586150000000     0.942870000000     0.113610000000     0.418654   
C292     C      0.940110000000     0.588410000000     0.108960000000     0.39473    
C293     C      0.939220000000     0.588070000000     0.473320000000     0.387174   
C294     C      0.597000000000     0.931740000000     0.489160000000     0.413964   
C295     C      0.941700000000     0.940780000000     0.471840000000     0.40876    
C296     C      0.586290000000     0.586470000000     0.470390000000     0.387507   
C297     C      0.847190000000     0.846830000000     0.236610000000     0.391638   
C298     C      0.681470000000     0.683140000000     0.234670000000     0.393218   
C299     C      0.840080000000     0.689730000000     0.225710000000     0.419566   
C300     C      0.688430000000     0.841510000000     0.225180000000     0.397051   
C301     C      0.684600000000     0.844980000000     0.350160000000     0.389539   
C302     C      0.836460000000     0.689590000000     0.359400000000     0.411408   
C303     C      0.837580000000     0.838670000000     0.360600000000     0.387485   
C304     C      0.688590000000     0.690080000000     0.357900000000     0.40816    
C305     C      0.671030000000     0.614680000000     0.187600000000    -0.0192391  
C306     C      0.611960000000     0.673190000000     0.189620000000    -0.105682   
C307     C      0.667700000000     0.613330000000     0.134340000000    -0.00776833 
C308     C      0.609050000000     0.671670000000     0.136330000000     0.323956   
C309     C      0.648500000000     0.590100000000     0.413630000000    -0.0145627  
C310     C      0.589310000000     0.648120000000     0.412980000000    -0.103141   
C311     C      0.683920000000     0.626520000000     0.412820000000    -0.0160669  
C312     C      0.624540000000     0.684580000000     0.413460000000     0.322766   
C313     C      0.683320000000     0.905170000000     0.170420000000    -0.0189531  
C314     C      0.624490000000     0.846220000000     0.171310000000    -0.106393   
C315     C      0.647320000000     0.940870000000     0.171230000000    -0.00670833 
C316     C      0.589040000000     0.882210000000     0.173520000000     0.325016   
C317     C      0.879010000000     0.591540000000     0.166700000000    -0.0189428  
C318     C      0.938230000000     0.649720000000     0.166610000000    -0.110347   
C319     C      0.843700000000     0.627750000000     0.169140000000    -0.00675234 
C320     C      0.902970000000     0.685980000000     0.168760000000     0.327675   
C321     C      0.843020000000     0.902500000000     0.415350000000    -0.0185873  
C322     C      0.900050000000     0.842140000000     0.416780000000    -0.103687   
C323     C      0.879960000000     0.937330000000     0.414810000000    -0.00785762 
C324     C      0.936810000000     0.877050000000     0.415460000000     0.321573   
C325     C      0.934510000000     0.650720000000     0.417230000000    -0.0190879  
C326     C      0.876930000000     0.590860000000     0.416960000000    -0.104702   
C327     C      0.898050000000     0.685910000000     0.416380000000    -0.00743575 
C328     C      0.840520000000     0.626120000000     0.416100000000     0.322967   
C329     C      0.673310000000     0.914580000000     0.394940000000    -0.01975    
C330     C      0.615600000000     0.854500000000     0.395750000000    -0.111159   
C331     C      0.668060000000     0.919860000000     0.447740000000    -0.00744124 
C332     C      0.611590000000     0.859360000000     0.448590000000     0.328477   
C333     C      0.859340000000     0.916500000000     0.191930000000    -0.0196169  
C334     C      0.915600000000     0.855320000000     0.189380000000    -0.1104     
C335     C      0.860640000000     0.919510000000     0.138610000000    -0.00706651 
C336     C      0.916170000000     0.858190000000     0.136070000000     0.329949   
C337     C      0.930030000000     0.929920000000     0.593630000000     0.415353   
C338     C      0.597110000000     0.600480000000     0.592290000000     0.417269   
C339     C      0.586150000000     0.942870000000     0.613610000000     0.418676   
C340     C      0.940110000000     0.588410000000     0.608960000000     0.394768   
C341     C      0.939220000000     0.588070000000     0.973320000000     0.387139   
C342     C      0.597000000000     0.931740000000     0.989160000000     0.414721   
C343     C      0.941700000000     0.940780000000     0.971840000000     0.408723   
C344     C      0.586290000000     0.586470000000     0.970390000000     0.38747    
C345     C      0.847190000000     0.846830000000     0.736610000000     0.39164    
C346     C      0.681470000000     0.683140000000     0.734670000000     0.393268   
C347     C      0.840080000000     0.689730000000     0.725710000000     0.419569   
C348     C      0.688430000000     0.841510000000     0.725180000000     0.397059   
C349     C      0.684600000000     0.844980000000     0.850170000000     0.389498   
C350     C      0.836460000000     0.689590000000     0.859400000000     0.411411   
C351     C      0.837580000000     0.838670000000     0.860600000000     0.38749    
C352     C      0.688590000000     0.690080000000     0.857900000000     0.408165   
C353     C      0.671030000000     0.614680000000     0.687600000000    -0.0192377  
C354     C      0.611960000000     0.673190000000     0.689630000000    -0.105648   
C355     C      0.667700000000     0.613330000000     0.634340000000    -0.00777685 
C356     C      0.609050000000     0.671670000000     0.636330000000     0.323918   
C357     C      0.648500000000     0.590100000000     0.913620000000    -0.0145856  
C358     C      0.589310000000     0.648120000000     0.912980000000    -0.103073   
C359     C      0.683920000000     0.626520000000     0.912820000000    -0.0160609  
C360     C      0.624540000000     0.684580000000     0.913460000000     0.322745   
C361     C      0.683320000000     0.905170000000     0.670420000000    -0.0189261  
C362     C      0.624490000000     0.846220000000     0.671310000000    -0.106364   
C363     C      0.647320000000     0.940870000000     0.671230000000    -0.00671408 
C364     C      0.589040000000     0.882210000000     0.673520000000     0.325012   
C365     C      0.879010000000     0.591540000000     0.666700000000    -0.0189383  
C366     C      0.938230000000     0.649720000000     0.666610000000    -0.11034    
C367     C      0.843700000000     0.627750000000     0.669140000000    -0.00675049 
C368     C      0.902970000000     0.685980000000     0.668760000000     0.327671   
C369     C      0.843020000000     0.902500000000     0.915350000000    -0.0185936  
C370     C      0.900050000000     0.842140000000     0.916780000000    -0.103694   
C371     C      0.879960000000     0.937330000000     0.914810000000    -0.00785026 
C372     C      0.936810000000     0.877050000000     0.915460000000     0.321582   
C373     C      0.934510000000     0.650720000000     0.917230000000    -0.0190781  
C374     C      0.876930000000     0.590860000000     0.916960000000    -0.104694   
C375     C      0.898050000000     0.685910000000     0.916380000000    -0.00744825 
C376     C      0.840520000000     0.626120000000     0.916110000000     0.322909   
C377     C      0.673310000000     0.914580000000     0.894940000000    -0.0197497  
C378     C      0.615600000000     0.854500000000     0.895750000000    -0.1112     
C379     C      0.668060000000     0.919860000000     0.947740000000    -0.00742486 
C380     C      0.611590000000     0.859360000000     0.948590000000     0.328518   
C381     C      0.859340000000     0.916500000000     0.691930000000    -0.0196146  
C382     C      0.915600000000     0.855320000000     0.689380000000    -0.110399   
C383     C      0.860640000000     0.919510000000     0.638610000000    -0.00706812 
C384     C      0.916170000000     0.858190000000     0.636070000000     0.32995    
Co1      Co     0.448640000000     0.013730000000     0.041530000000     0.837629   
Co2      Co     0.079680000000     0.515010000000     0.542680000000     0.839389   
Co3      Co     0.514070000000     0.448940000000     0.042810000000     0.860667   
Co4      Co     0.513980000000     0.079790000000     0.540610000000     0.851493   
Co5      Co     0.264350000000     0.330990000000     0.290640000000     0.838729   
Co6      Co     0.263190000000     0.199350000000     0.290330000000     0.841637   
Co7      Co     0.328930000000     0.264950000000     0.292090000000     0.850112   
Co8      Co     0.198590000000     0.265110000000     0.290340000000     0.848861   
Co9      Co     0.448640000000     0.013730000000     0.541530000000     0.837984   
Co10     Co     0.079680000000     0.515010000000     0.042680000000     0.839226   
Co11     Co     0.514070000000     0.448940000000     0.542810000000     0.860831   
Co12     Co     0.513980000000     0.079790000000     0.040610000000     0.8511     
Co13     Co     0.264350000000     0.330990000000     0.790640000000     0.838729   
Co14     Co     0.263190000000     0.199350000000     0.790330000000     0.841639   
Co15     Co     0.328930000000     0.264950000000     0.792090000000     0.850113   
Co16     Co     0.198590000000     0.265110000000     0.790340000000     0.848862   
Co17     Co     0.448640000000     0.513720000000     0.041530000000     0.837819   
Co18     Co     0.079680000000     0.015010000000     0.542680000000     0.839212   
Co19     Co     0.514070000000     0.948940000000     0.042810000000     0.860827   
Co20     Co     0.513980000000     0.579790000000     0.540610000000     0.851505   
Co21     Co     0.264350000000     0.830990000000     0.290640000000     0.838754   
Co22     Co     0.263190000000     0.699350000000     0.290330000000     0.841628   
Co23     Co     0.328930000000     0.764950000000     0.292090000000     0.850151   
Co24     Co     0.198590000000     0.765110000000     0.290340000000     0.84887    
Co25     Co     0.448640000000     0.513720000000     0.541530000000     0.838173   
Co26     Co     0.079680000000     0.015010000000     0.042680000000     0.83905    
Co27     Co     0.514070000000     0.948940000000     0.542810000000     0.860992   
Co28     Co     0.513980000000     0.579790000000     0.040610000000     0.851111   
Co29     Co     0.264350000000     0.830990000000     0.790640000000     0.838753   
Co30     Co     0.263190000000     0.699350000000     0.790330000000     0.84163    
Co31     Co     0.328930000000     0.764950000000     0.792090000000     0.850151   
Co32     Co     0.198590000000     0.765110000000     0.790340000000     0.848871   
Co33     Co     0.948640000000     0.013730000000     0.041530000000     0.837745   
Co34     Co     0.579680000000     0.515010000000     0.542680000000     0.839368   
Co35     Co     0.014070000000     0.448940000000     0.042810000000     0.860494   
Co36     Co     0.013980000000     0.079790000000     0.540610000000     0.851317   
Co37     Co     0.764350000000     0.330990000000     0.290640000000     0.838714   
Co38     Co     0.763190000000     0.199350000000     0.290330000000     0.8416     
Co39     Co     0.828920000000     0.264950000000     0.292090000000     0.849878   
Co40     Co     0.698590000000     0.265110000000     0.290340000000     0.848912   
Co41     Co     0.948640000000     0.013730000000     0.541530000000     0.838099   
Co42     Co     0.579680000000     0.515010000000     0.042680000000     0.839206   
Co43     Co     0.014070000000     0.448940000000     0.542810000000     0.860659   
Co44     Co     0.013980000000     0.079790000000     0.040610000000     0.850924   
Co45     Co     0.764350000000     0.330990000000     0.790640000000     0.838713   
Co46     Co     0.763190000000     0.199350000000     0.790330000000     0.841603   
Co47     Co     0.828920000000     0.264950000000     0.792090000000     0.849878   
Co48     Co     0.698590000000     0.265110000000     0.790340000000     0.848914   
Co49     Co     0.948640000000     0.513720000000     0.041530000000     0.837934   
Co50     Co     0.579680000000     0.015010000000     0.542680000000     0.839191   
Co51     Co     0.014070000000     0.948940000000     0.042810000000     0.860654   
Co52     Co     0.013980000000     0.579790000000     0.540610000000     0.851329   
Co53     Co     0.764350000000     0.830990000000     0.290640000000     0.838738   
Co54     Co     0.763190000000     0.699350000000     0.290330000000     0.841591   
Co55     Co     0.828920000000     0.764950000000     0.292090000000     0.849916   
Co56     Co     0.698590000000     0.765110000000     0.290340000000     0.848922   
Co57     Co     0.948640000000     0.513720000000     0.541530000000     0.838289   
Co58     Co     0.579680000000     0.015010000000     0.042680000000     0.839029   
Co59     Co     0.014070000000     0.948940000000     0.542810000000     0.860819   
Co60     Co     0.013980000000     0.579790000000     0.040610000000     0.850936   
Co61     Co     0.764350000000     0.830990000000     0.790640000000     0.838738   
Co62     Co     0.763190000000     0.699350000000     0.790330000000     0.841594   
Co63     Co     0.828920000000     0.764950000000     0.792090000000     0.849917   
Co64     Co     0.698590000000     0.765110000000     0.790340000000     0.848923   
F1       F      0.066600000000     0.183120000000     0.122710000000    -0.410509   
F2       F      0.107720000000     0.221710000000     0.391180000000    -0.416597   
F3       F      0.050380000000     0.366340000000     0.153690000000    -0.389154   
F4       F      0.420400000000     0.222330000000     0.191950000000    -0.413275   
F5       F      0.473860000000     0.360210000000     0.437680000000    -0.387536   
F6       F      0.304050000000     0.108930000000     0.393130000000    -0.436374   
F7       F      0.069330000000     0.347130000000     0.462090000000    -0.37908    
F8       F      0.457190000000     0.344790000000     0.119840000000    -0.377368   
F9       F      0.066600000000     0.183120000000     0.622710000000    -0.410468   
F10      F      0.107720000000     0.221710000000     0.891180000000    -0.416583   
F11      F      0.050380000000     0.366340000000     0.653690000000    -0.389139   
F12      F      0.420400000000     0.222330000000     0.691950000000    -0.413265   
F13      F      0.473860000000     0.360210000000     0.937680000000    -0.387496   
F14      F      0.304050000000     0.108930000000     0.893130000000    -0.436324   
F15      F      0.069330000000     0.347130000000     0.962090000000    -0.379007   
F16      F      0.457190000000     0.344790000000     0.619840000000    -0.377331   
F17      F      0.066600000000     0.683130000000     0.122710000000    -0.410493   
F18      F      0.107720000000     0.721710000000     0.391180000000    -0.416597   
F19      F      0.050380000000     0.866340000000     0.153690000000    -0.389149   
F20      F      0.420400000000     0.722320000000     0.191950000000    -0.41334    
F21      F      0.473860000000     0.860200000000     0.437680000000    -0.387505   
F22      F      0.304050000000     0.608930000000     0.393130000000    -0.436358   
F23      F      0.069330000000     0.847130000000     0.462090000000    -0.379075   
F24      F      0.457190000000     0.844790000000     0.119840000000    -0.377368   
F25      F      0.066600000000     0.683130000000     0.622710000000    -0.410452   
F26      F      0.107720000000     0.721710000000     0.891180000000    -0.416582   
F27      F      0.050380000000     0.866340000000     0.653690000000    -0.389134   
F28      F      0.420400000000     0.722320000000     0.691950000000    -0.413331   
F29      F      0.473860000000     0.860200000000     0.937680000000    -0.387465   
F30      F      0.304050000000     0.608930000000     0.893130000000    -0.436308   
F31      F      0.069330000000     0.847130000000     0.962090000000    -0.379003   
F32      F      0.457190000000     0.844790000000     0.619840000000    -0.377331   
F33      F      0.566600000000     0.183120000000     0.122710000000    -0.410556   
F34      F      0.607720000000     0.221710000000     0.391180000000    -0.416582   
F35      F      0.550380000000     0.366340000000     0.153690000000    -0.389126   
F36      F      0.920400000000     0.222330000000     0.191950000000    -0.413226   
F37      F      0.973860000000     0.360210000000     0.437680000000    -0.387501   
F38      F      0.804050000000     0.108930000000     0.393130000000    -0.436378   
F39      F      0.569330000000     0.347130000000     0.462090000000    -0.379051   
F40      F      0.957200000000     0.344790000000     0.119840000000    -0.37726    
F41      F      0.566600000000     0.183120000000     0.622710000000    -0.410515   
F42      F      0.607720000000     0.221710000000     0.891180000000    -0.416567   
F43      F      0.550380000000     0.366340000000     0.653690000000    -0.38911    
F44      F      0.920400000000     0.222330000000     0.691950000000    -0.413217   
F45      F      0.973860000000     0.360210000000     0.937680000000    -0.387461   
F46      F      0.804050000000     0.108930000000     0.893130000000    -0.436328   
F47      F      0.569330000000     0.347130000000     0.962090000000    -0.378979   
F48      F      0.957200000000     0.344790000000     0.619840000000    -0.377223   
F49      F      0.566600000000     0.683130000000     0.122710000000    -0.41054    
F50      F      0.607720000000     0.721710000000     0.391180000000    -0.416581   
F51      F      0.550380000000     0.866340000000     0.153690000000    -0.389121   
F52      F      0.920400000000     0.722320000000     0.191950000000    -0.413292   
F53      F      0.973860000000     0.860200000000     0.437680000000    -0.38747    
F54      F      0.804050000000     0.608930000000     0.393130000000    -0.436362   
F55      F      0.569330000000     0.847130000000     0.462090000000    -0.379047   
F56      F      0.957200000000     0.844790000000     0.119840000000    -0.377261   
F57      F      0.566600000000     0.683130000000     0.622710000000    -0.410499   
F58      F      0.607720000000     0.721710000000     0.891180000000    -0.416566   
F59      F      0.550380000000     0.866340000000     0.653690000000    -0.389106   
F60      F      0.920400000000     0.722320000000     0.691950000000    -0.413283   
F61      F      0.973860000000     0.860200000000     0.937680000000    -0.38743    
F62      F      0.804050000000     0.608930000000     0.893130000000    -0.436313   
F63      F      0.569330000000     0.847130000000     0.962090000000    -0.378974   
F64      F      0.957200000000     0.844790000000     0.619840000000    -0.377224   
H1       H      0.086530000000     0.150350000000     0.204070000000     0.0944321  
H2       H      0.149130000000     0.088390000000     0.202000000000     0.0491146  
H3       H      0.176670000000     0.079540000000     0.122080000000     0.0518918  
H4       H      0.103840000000     0.207280000000     0.201660000000     0.110561   
H5       H      0.132140000000     0.197100000000     0.122260000000     0.00739641 
H6       H      0.205530000000     0.106690000000     0.198020000000     0.0542786  
H7       H      0.192540000000     0.136830000000     0.119880000000     0.04571    
H8       H      0.080320000000     0.141180000000     0.376080000000     0.0903864  
H9       H      0.141940000000     0.079770000000     0.377040000000     0.0488593  
H10      H      0.213330000000     0.113760000000     0.393910000000     0.0868792  
H11      H      0.059150000000     0.160480000000     0.430910000000     0.107402   
H12      H      0.131080000000     0.193570000000     0.450450000000     0.0116362  
H13      H      0.161640000000     0.060790000000     0.432630000000     0.0564343  
H14      H      0.194170000000     0.133240000000     0.449390000000     0.057206   
H15      H      0.129810000000     0.337160000000     0.134130000000     0.104121   
H16      H      0.192670000000     0.399030000000     0.133480000000     0.0501402  
H17      H      0.159670000000     0.470860000000     0.152850000000     0.0508569  
H18      H      0.112260000000     0.316210000000     0.189760000000     0.113141   
H19      H      0.082260000000     0.389330000000     0.210910000000     0.00474972 
H20      H      0.213060000000     0.417930000000     0.188820000000     0.0529006  
H21      H      0.141200000000     0.450230000000     0.208190000000     0.0441569  
H22      H      0.448810000000     0.141900000000     0.202840000000     0.0977085  
H23      H      0.386620000000     0.080620000000     0.202860000000     0.0502548  
H24      H      0.314560000000     0.114450000000     0.188180000000     0.0527467  
H25      H      0.467540000000     0.162670000000     0.147580000000     0.130124   
H26      H      0.395280000000     0.196280000000     0.132410000000     0.0090754  
H27      H      0.365350000000     0.062560000000     0.147560000000     0.053182   
H28      H      0.332890000000     0.135510000000     0.132980000000     0.0452259  
H29      H      0.393380000000     0.333640000000     0.453870000000     0.0985249  
H30      H      0.332910000000     0.397020000000     0.452190000000     0.0501564  
H31      H      0.367890000000     0.467850000000     0.432430000000     0.0553277  
H32      H      0.411860000000     0.311530000000     0.399120000000     0.106493   
H33      H      0.445530000000     0.383010000000     0.378290000000     0.00671692 
H34      H      0.313900000000     0.415760000000     0.396230000000     0.0554334  
H35      H      0.386910000000     0.446080000000     0.377850000000     0.046347   
H36      H      0.384150000000     0.080860000000     0.380410000000     0.0873799  
H37      H      0.444880000000     0.144080000000     0.380680000000     0.0561629  
H38      H      0.410760000000     0.215830000000     0.398140000000     0.0669036  
H39      H      0.364490000000     0.061090000000     0.435690000000     0.0937155  
H40      H      0.330730000000     0.133070000000     0.452780000000    -0.00274909 
H41      H      0.463590000000     0.164230000000     0.436200000000     0.0700546  
H42      H      0.390660000000     0.195600000000     0.452980000000     0.0540244  
H43      H      0.089810000000     0.375500000000     0.379080000000     0.105577   
H44      H      0.151720000000     0.439440000000     0.377540000000     0.0498952  
H45      H      0.175190000000     0.454890000000     0.457210000000     0.0533246  
H46      H      0.108760000000     0.319440000000     0.386190000000     0.136247   
H47      H      0.135290000000     0.335820000000     0.464960000000     0.011827   
H48      H      0.208090000000     0.422270000000     0.385350000000     0.0552897  
H49      H      0.193320000000     0.398710000000     0.465080000000     0.0450982  
H50      H      0.442600000000     0.376670000000     0.203180000000     0.109703   
H51      H      0.383050000000     0.441220000000     0.206200000000     0.0504663  
H52      H      0.353110000000     0.454150000000     0.128010000000     0.0512738  
H53      H      0.422670000000     0.320600000000     0.200050000000     0.137354   
H54      H      0.391090000000     0.334450000000     0.122540000000     0.0115389  
H55      H      0.325750000000     0.425820000000     0.204220000000     0.0537607  
H56      H      0.334010000000     0.397900000000     0.124460000000     0.0450867  
H57      H      0.086530000000     0.150350000000     0.704070000000     0.0944274  
H58      H      0.149130000000     0.088390000000     0.702000000000     0.0491134  
H59      H      0.176670000000     0.079540000000     0.622080000000     0.0519213  
H60      H      0.103840000000     0.207280000000     0.701660000000     0.110561   
H61      H      0.132140000000     0.197100000000     0.622260000000     0.00744294 
H62      H      0.205530000000     0.106690000000     0.698020000000     0.0542842  
H63      H      0.192540000000     0.136830000000     0.619880000000     0.0457522  
H64      H      0.080320000000     0.141180000000     0.876070000000     0.0903542  
H65      H      0.141940000000     0.079770000000     0.877040000000     0.0488704  
H66      H      0.213330000000     0.113760000000     0.893910000000     0.0868875  
H67      H      0.059150000000     0.160480000000     0.930910000000     0.107407   
H68      H      0.131080000000     0.193570000000     0.950450000000     0.0116891  
H69      H      0.161640000000     0.060790000000     0.932630000000     0.0564728  
H70      H      0.194170000000     0.133240000000     0.949390000000     0.0572541  
H71      H      0.129810000000     0.337160000000     0.634130000000     0.104155   
H72      H      0.192670000000     0.399030000000     0.633470000000     0.0501667  
H73      H      0.159670000000     0.470860000000     0.652850000000     0.0508704  
H74      H      0.112260000000     0.316210000000     0.689770000000     0.113135   
H75      H      0.082260000000     0.389330000000     0.710910000000     0.00474691 
H76      H      0.213060000000     0.417930000000     0.688820000000     0.0529029  
H77      H      0.141200000000     0.450230000000     0.708190000000     0.0441556  
H78      H      0.448810000000     0.141900000000     0.702840000000     0.0977031  
H79      H      0.386620000000     0.080620000000     0.702860000000     0.0502499  
H80      H      0.314560000000     0.114450000000     0.688190000000     0.0527578  
H81      H      0.467540000000     0.162670000000     0.647580000000     0.130137   
H82      H      0.395280000000     0.196280000000     0.632410000000     0.00911577 
H83      H      0.365350000000     0.062560000000     0.647560000000     0.0531989  
H84      H      0.332890000000     0.135510000000     0.632980000000     0.0452661  
H85      H      0.393380000000     0.333640000000     0.953870000000     0.0985782  
H86      H      0.332910000000     0.397020000000     0.952190000000     0.0502081  
H87      H      0.367890000000     0.467850000000     0.932430000000     0.0553468  
H88      H      0.411860000000     0.311530000000     0.899120000000     0.106505   
H89      H      0.445530000000     0.383010000000     0.878290000000     0.00671469 
H90      H      0.313900000000     0.415760000000     0.896230000000     0.0554445  
H91      H      0.386910000000     0.446080000000     0.877850000000     0.046344   
H92      H      0.384150000000     0.080860000000     0.880410000000     0.0873802  
H93      H      0.444880000000     0.144080000000     0.880680000000     0.0561606  
H94      H      0.410760000000     0.215830000000     0.898140000000     0.0669169  
H95      H      0.364490000000     0.061090000000     0.935680000000     0.0937422  
H96      H      0.330730000000     0.133070000000     0.952780000000    -0.0027301  
H97      H      0.463590000000     0.164230000000     0.936200000000     0.0700761  
H98      H      0.390660000000     0.195600000000     0.952980000000     0.0540769  
H99      H      0.089810000000     0.375500000000     0.879090000000     0.105603   
H100     H      0.151720000000     0.439440000000     0.877540000000     0.0499012  
H101     H      0.175190000000     0.454890000000     0.957210000000     0.0533859  
H102     H      0.108760000000     0.319440000000     0.886190000000     0.136261   
H103     H      0.135290000000     0.335820000000     0.964960000000     0.011868   
H104     H      0.208090000000     0.422270000000     0.885350000000     0.0552942  
H105     H      0.193320000000     0.398710000000     0.965070000000     0.0451483  
H106     H      0.442600000000     0.376670000000     0.703180000000     0.109699   
H107     H      0.383050000000     0.441220000000     0.706200000000     0.0504638  
H108     H      0.353110000000     0.454150000000     0.628010000000     0.0513034  
H109     H      0.422670000000     0.320600000000     0.700050000000     0.137358   
H110     H      0.391090000000     0.334450000000     0.622540000000     0.0115782  
H111     H      0.325750000000     0.425820000000     0.704220000000     0.0537641  
H112     H      0.334010000000     0.397900000000     0.624460000000     0.0451261  
H113     H      0.086530000000     0.650350000000     0.204070000000     0.0944347  
H114     H      0.149130000000     0.588390000000     0.202000000000     0.049131   
H115     H      0.176670000000     0.579540000000     0.122080000000     0.051917   
H116     H      0.103840000000     0.707280000000     0.201660000000     0.110565   
H117     H      0.132140000000     0.697100000000     0.122260000000     0.00740756 
H118     H      0.205530000000     0.606690000000     0.198020000000     0.0542889  
H119     H      0.192540000000     0.636820000000     0.119880000000     0.0457247  
H120     H      0.080320000000     0.641180000000     0.376080000000     0.0903935  
H121     H      0.141940000000     0.579770000000     0.377040000000     0.0488877  
H122     H      0.213330000000     0.613760000000     0.393910000000     0.0868861  
H123     H      0.059150000000     0.660480000000     0.430910000000     0.107404   
H124     H      0.131080000000     0.693570000000     0.450450000000     0.0116362  
H125     H      0.161640000000     0.560800000000     0.432630000000     0.0564715  
H126     H      0.194170000000     0.633240000000     0.449390000000     0.0572071  
H127     H      0.129810000000     0.837160000000     0.134130000000     0.104123   
H128     H      0.192670000000     0.899030000000     0.133480000000     0.0501455  
H129     H      0.159670000000     0.970860000000     0.152850000000     0.0508901  
H130     H      0.112260000000     0.816210000000     0.189760000000     0.113141   
H131     H      0.082260000000     0.889330000000     0.210910000000     0.00475548 
H132     H      0.213060000000     0.917930000000     0.188820000000     0.0529051  
H133     H      0.141200000000     0.950230000000     0.208190000000     0.0441789  
H134     H      0.448810000000     0.641900000000     0.202840000000     0.0977299  
H135     H      0.386620000000     0.580620000000     0.202860000000     0.0502758  
H136     H      0.314560000000     0.614450000000     0.188180000000     0.0527561  
H137     H      0.467540000000     0.662670000000     0.147580000000     0.130137   
H138     H      0.395280000000     0.696280000000     0.132410000000     0.00903975 
H139     H      0.365350000000     0.562560000000     0.147560000000     0.0532078  
H140     H      0.332890000000     0.635510000000     0.132980000000     0.045228   
H141     H      0.393380000000     0.833640000000     0.453870000000     0.0985241  
H142     H      0.332910000000     0.897020000000     0.452190000000     0.0501633  
H143     H      0.367890000000     0.967850000000     0.432430000000     0.055354   
H144     H      0.411860000000     0.811530000000     0.399120000000     0.106493   
H145     H      0.445530000000     0.883010000000     0.378290000000     0.00673542 
H146     H      0.313900000000     0.915760000000     0.396230000000     0.0554469  
H147     H      0.386910000000     0.946090000000     0.377850000000     0.0463628  
H148     H      0.384150000000     0.580860000000     0.380410000000     0.0874024  
H149     H      0.444880000000     0.644080000000     0.380680000000     0.05617    
H150     H      0.410760000000     0.715830000000     0.398140000000     0.0669089  
H151     H      0.364490000000     0.561090000000     0.435690000000     0.0937434  
H152     H      0.330730000000     0.633070000000     0.452780000000    -0.00274659 
H153     H      0.463590000000     0.664230000000     0.436200000000     0.0700556  
H154     H      0.390660000000     0.695600000000     0.452980000000     0.0540258  
H155     H      0.089810000000     0.875510000000     0.379080000000     0.10556    
H156     H      0.151720000000     0.939450000000     0.377540000000     0.0498989  
H157     H      0.175190000000     0.954890000000     0.457210000000     0.0533537  
H158     H      0.108760000000     0.819440000000     0.386190000000     0.136241   
H159     H      0.135290000000     0.835820000000     0.464960000000     0.011831   
H160     H      0.208090000000     0.922270000000     0.385350000000     0.0552939  
H161     H      0.193320000000     0.898720000000     0.465080000000     0.0451091  
H162     H      0.442600000000     0.876670000000     0.203180000000     0.10971    
H163     H      0.383050000000     0.941220000000     0.206200000000     0.0504894  
H164     H      0.353110000000     0.954150000000     0.128010000000     0.0512976  
H165     H      0.422670000000     0.820600000000     0.200050000000     0.137351   
H166     H      0.391090000000     0.834450000000     0.122540000000     0.0115379  
H167     H      0.325750000000     0.925820000000     0.204220000000     0.0537771  
H168     H      0.334010000000     0.897900000000     0.124460000000     0.0450925  
H169     H      0.086530000000     0.650350000000     0.704070000000     0.09443    
H170     H      0.149130000000     0.588390000000     0.702000000000     0.0491298  
H171     H      0.176670000000     0.579540000000     0.622080000000     0.0519466  
H172     H      0.103840000000     0.707280000000     0.701660000000     0.110565   
H173     H      0.132140000000     0.697100000000     0.622260000000     0.00745409 
H174     H      0.205530000000     0.606690000000     0.698020000000     0.0542945  
H175     H      0.192540000000     0.636820000000     0.619880000000     0.0457669  
H176     H      0.080320000000     0.641180000000     0.876070000000     0.0903613  
H177     H      0.141940000000     0.579770000000     0.877040000000     0.0488988  
H178     H      0.213330000000     0.613760000000     0.893910000000     0.0868944  
H179     H      0.059150000000     0.660480000000     0.930910000000     0.107409   
H180     H      0.131080000000     0.693570000000     0.950450000000     0.0116891  
H181     H      0.161640000000     0.560800000000     0.932630000000     0.05651    
H182     H      0.194170000000     0.633240000000     0.949390000000     0.0572552  
H183     H      0.129810000000     0.837160000000     0.634130000000     0.104157   
H184     H      0.192670000000     0.899030000000     0.633470000000     0.0501721  
H185     H      0.159670000000     0.970860000000     0.652850000000     0.0509037  
H186     H      0.112260000000     0.816210000000     0.689770000000     0.113135   
H187     H      0.082260000000     0.889330000000     0.710910000000     0.00475266 
H188     H      0.213060000000     0.917930000000     0.688820000000     0.0529073  
H189     H      0.141200000000     0.950230000000     0.708190000000     0.0441777  
H190     H      0.448810000000     0.641900000000     0.702840000000     0.0977244  
H191     H      0.386620000000     0.580620000000     0.702860000000     0.0502709  
H192     H      0.314560000000     0.614450000000     0.688190000000     0.0527672  
H193     H      0.467540000000     0.662670000000     0.647580000000     0.13015    
H194     H      0.395280000000     0.696280000000     0.632410000000     0.00908012 
H195     H      0.365350000000     0.562560000000     0.647560000000     0.0532247  
H196     H      0.332890000000     0.635510000000     0.632980000000     0.0452683  
H197     H      0.393380000000     0.833640000000     0.953870000000     0.0985775  
H198     H      0.332910000000     0.897020000000     0.952190000000     0.050215   
H199     H      0.367890000000     0.967850000000     0.932430000000     0.0553731  
H200     H      0.411860000000     0.811530000000     0.899120000000     0.106506   
H201     H      0.445530000000     0.883010000000     0.878290000000     0.00673319 
H202     H      0.313900000000     0.915760000000     0.896230000000     0.055458   
H203     H      0.386910000000     0.946090000000     0.877850000000     0.0463597  
H204     H      0.384150000000     0.580860000000     0.880410000000     0.0874028  
H205     H      0.444880000000     0.644080000000     0.880680000000     0.0561676  
H206     H      0.410760000000     0.715830000000     0.898140000000     0.0669222  
H207     H      0.364490000000     0.561090000000     0.935680000000     0.0937701  
H208     H      0.330730000000     0.633070000000     0.952780000000    -0.0027276  
H209     H      0.463590000000     0.664230000000     0.936200000000     0.0700772  
H210     H      0.390660000000     0.695600000000     0.952980000000     0.0540783  
H211     H      0.089810000000     0.875510000000     0.879090000000     0.105586   
H212     H      0.151720000000     0.939450000000     0.877540000000     0.0499048  
H213     H      0.175190000000     0.954890000000     0.957210000000     0.053415   
H214     H      0.108760000000     0.819440000000     0.886190000000     0.136255   
H215     H      0.135290000000     0.835820000000     0.964960000000     0.0118721  
H216     H      0.208090000000     0.922270000000     0.885350000000     0.0552984  
H217     H      0.193320000000     0.898720000000     0.965070000000     0.0451592  
H218     H      0.442600000000     0.876670000000     0.703180000000     0.109707   
H219     H      0.383050000000     0.941220000000     0.706200000000     0.0504868  
H220     H      0.353110000000     0.954150000000     0.628010000000     0.0513273  
H221     H      0.422670000000     0.820600000000     0.700050000000     0.137354   
H222     H      0.391090000000     0.834450000000     0.622540000000     0.0115772  
H223     H      0.325750000000     0.925820000000     0.704220000000     0.0537805  
H224     H      0.334010000000     0.897900000000     0.624460000000     0.0451319  
H225     H      0.586530000000     0.150350000000     0.204070000000     0.0944569  
H226     H      0.649130000000     0.088390000000     0.202000000000     0.0491345  
H227     H      0.676670000000     0.079540000000     0.122080000000     0.0518607  
H228     H      0.603840000000     0.207280000000     0.201660000000     0.110582   
H229     H      0.632140000000     0.197100000000     0.122260000000     0.00739315 
H230     H      0.705520000000     0.106690000000     0.198020000000     0.0542991  
H231     H      0.692540000000     0.136830000000     0.119880000000     0.0456796  
H232     H      0.580320000000     0.141180000000     0.376080000000     0.0904056  
H233     H      0.641940000000     0.079770000000     0.377040000000     0.0488653  
H234     H      0.713330000000     0.113760000000     0.393910000000     0.0868809  
H235     H      0.559150000000     0.160480000000     0.430910000000     0.107428   
H236     H      0.631080000000     0.193570000000     0.450450000000     0.0116391  
H237     H      0.661640000000     0.060790000000     0.432630000000     0.056435   
H238     H      0.694170000000     0.133240000000     0.449390000000     0.0572061  
H239     H      0.629810000000     0.337160000000     0.134130000000     0.104123   
H240     H      0.692670000000     0.399030000000     0.133480000000     0.0501394  
H241     H      0.659670000000     0.470860000000     0.152850000000     0.0508579  
H242     H      0.612260000000     0.316210000000     0.189760000000     0.113149   
H243     H      0.582260000000     0.389330000000     0.210910000000     0.00476485 
H244     H      0.713060000000     0.417930000000     0.188820000000     0.0529002  
H245     H      0.641200000000     0.450230000000     0.208190000000     0.0441622  
H246     H      0.948820000000     0.141900000000     0.202840000000     0.0977022  
H247     H      0.886620000000     0.080620000000     0.202860000000     0.0502625  
H248     H      0.814560000000     0.114450000000     0.188180000000     0.0527533  
H249     H      0.967540000000     0.162670000000     0.147580000000     0.130127   
H250     H      0.895280000000     0.196280000000     0.132410000000     0.00908117 
H251     H      0.865350000000     0.062560000000     0.147560000000     0.0531814  
H252     H      0.832900000000     0.135510000000     0.132980000000     0.0452313  
H253     H      0.893380000000     0.333640000000     0.453870000000     0.0985254  
H254     H      0.832910000000     0.397020000000     0.452190000000     0.0501393  
H255     H      0.867890000000     0.467850000000     0.432430000000     0.0553244  
H256     H      0.911860000000     0.311530000000     0.399120000000     0.1065     
H257     H      0.945530000000     0.383010000000     0.378290000000     0.00673984 
H258     H      0.813900000000     0.415760000000     0.396230000000     0.0554137  
H259     H      0.886910000000     0.446080000000     0.377850000000     0.0463474  
H260     H      0.884140000000     0.080860000000     0.380410000000     0.0873988  
H261     H      0.944890000000     0.144080000000     0.380680000000     0.0561783  
H262     H      0.910770000000     0.215830000000     0.398140000000     0.0669056  
H263     H      0.864490000000     0.061090000000     0.435690000000     0.0937207  
H264     H      0.830740000000     0.133070000000     0.452780000000    -0.00277387 
H265     H      0.963590000000     0.164230000000     0.436200000000     0.0700758  
H266     H      0.890660000000     0.195600000000     0.452980000000     0.054025   
H267     H      0.589810000000     0.375500000000     0.379080000000     0.105592   
H268     H      0.651720000000     0.439440000000     0.377540000000     0.0499032  
H269     H      0.675190000000     0.454890000000     0.457210000000     0.0533143  
H270     H      0.608760000000     0.319440000000     0.386190000000     0.136256   
H271     H      0.635290000000     0.335820000000     0.464960000000     0.0118359  
H272     H      0.708090000000     0.422270000000     0.385350000000     0.0552931  
H273     H      0.693320000000     0.398710000000     0.465080000000     0.045089   
H274     H      0.942600000000     0.376670000000     0.203180000000     0.109714   
H275     H      0.883060000000     0.441220000000     0.206200000000     0.0504686  
H276     H      0.853110000000     0.454150000000     0.128010000000     0.0512759  
H277     H      0.922670000000     0.320600000000     0.200050000000     0.137355   
H278     H      0.891100000000     0.334450000000     0.122540000000     0.0115469  
H279     H      0.825750000000     0.425820000000     0.204220000000     0.053758   
H280     H      0.834010000000     0.397900000000     0.124460000000     0.0450891  
H281     H      0.586530000000     0.150350000000     0.704070000000     0.0944522  
H282     H      0.649130000000     0.088390000000     0.702000000000     0.0491334  
H283     H      0.676670000000     0.079540000000     0.622080000000     0.0518903  
H284     H      0.603840000000     0.207280000000     0.701660000000     0.110582   
H285     H      0.632140000000     0.197100000000     0.622260000000     0.00743968 
H286     H      0.705520000000     0.106690000000     0.698020000000     0.0543047  
H287     H      0.692540000000     0.136830000000     0.619880000000     0.0457218  
H288     H      0.580320000000     0.141180000000     0.876070000000     0.0903734  
H289     H      0.641940000000     0.079770000000     0.877040000000     0.0488764  
H290     H      0.713330000000     0.113760000000     0.893910000000     0.0868892  
H291     H      0.559150000000     0.160480000000     0.930910000000     0.107433   
H292     H      0.631080000000     0.193570000000     0.950450000000     0.0116919  
H293     H      0.661640000000     0.060790000000     0.932630000000     0.0564735  
H294     H      0.694170000000     0.133240000000     0.949390000000     0.0572542  
H295     H      0.629810000000     0.337160000000     0.634130000000     0.104158   
H296     H      0.692670000000     0.399030000000     0.633470000000     0.050166   
H297     H      0.659670000000     0.470860000000     0.652850000000     0.0508715  
H298     H      0.612260000000     0.316210000000     0.689770000000     0.113142   
H299     H      0.582260000000     0.389330000000     0.710910000000     0.00476204 
H300     H      0.713060000000     0.417930000000     0.688820000000     0.0529025  
H301     H      0.641200000000     0.450230000000     0.708190000000     0.0441609  
H302     H      0.948820000000     0.141900000000     0.702840000000     0.0976967  
H303     H      0.886620000000     0.080620000000     0.702860000000     0.0502576  
H304     H      0.814560000000     0.114450000000     0.688190000000     0.0527645  
H305     H      0.967540000000     0.162670000000     0.647580000000     0.13014    
H306     H      0.895280000000     0.196280000000     0.632410000000     0.00912154 
H307     H      0.865350000000     0.062560000000     0.647560000000     0.0531983  
H308     H      0.832900000000     0.135510000000     0.632980000000     0.0452716  
H309     H      0.893380000000     0.333640000000     0.953870000000     0.0985787  
H310     H      0.832910000000     0.397020000000     0.952190000000     0.0501909  
H311     H      0.867890000000     0.467850000000     0.932430000000     0.0553435  
H312     H      0.911860000000     0.311530000000     0.899120000000     0.106512   
H313     H      0.945530000000     0.383010000000     0.878290000000     0.00673761 
H314     H      0.813900000000     0.415760000000     0.896230000000     0.0554248  
H315     H      0.886910000000     0.446080000000     0.877850000000     0.0463443  
H316     H      0.884140000000     0.080860000000     0.880410000000     0.0873991  
H317     H      0.944890000000     0.144080000000     0.880680000000     0.056176   
H318     H      0.910770000000     0.215830000000     0.898140000000     0.0669189  
H319     H      0.864490000000     0.061090000000     0.935680000000     0.0937474  
H320     H      0.830740000000     0.133070000000     0.952780000000    -0.0027549  
H321     H      0.963590000000     0.164230000000     0.936200000000     0.0700974  
H322     H      0.890660000000     0.195600000000     0.952980000000     0.0540775  
H323     H      0.589810000000     0.375500000000     0.879090000000     0.105618   
H324     H      0.651720000000     0.439440000000     0.877540000000     0.0499091  
H325     H      0.675190000000     0.454890000000     0.957210000000     0.0533756  
H326     H      0.608760000000     0.319440000000     0.886190000000     0.13627    
H327     H      0.635290000000     0.335820000000     0.964960000000     0.011877   
H328     H      0.708090000000     0.422270000000     0.885350000000     0.0552976  
H329     H      0.693320000000     0.398710000000     0.965070000000     0.0451391  
H330     H      0.942600000000     0.376670000000     0.703180000000     0.10971    
H331     H      0.883060000000     0.441220000000     0.706200000000     0.0504661  
H332     H      0.853110000000     0.454150000000     0.628010000000     0.0513055  
H333     H      0.922670000000     0.320600000000     0.700050000000     0.137358   
H334     H      0.891100000000     0.334450000000     0.622540000000     0.0115862  
H335     H      0.825750000000     0.425820000000     0.704220000000     0.0537614  
H336     H      0.834010000000     0.397900000000     0.624460000000     0.0451284  
H337     H      0.586530000000     0.650350000000     0.204070000000     0.0944595  
H338     H      0.649130000000     0.588390000000     0.202000000000     0.0491509  
H339     H      0.676670000000     0.579540000000     0.122080000000     0.051886   
H340     H      0.603840000000     0.707280000000     0.201660000000     0.110586   
H341     H      0.632140000000     0.697100000000     0.122260000000     0.00740431 
H342     H      0.705520000000     0.606690000000     0.198020000000     0.0543094  
H343     H      0.692540000000     0.636820000000     0.119880000000     0.0456943  
H344     H      0.580320000000     0.641180000000     0.376080000000     0.0904127  
H345     H      0.641940000000     0.579770000000     0.377040000000     0.0488937  
H346     H      0.713330000000     0.613760000000     0.393910000000     0.0868878  
H347     H      0.559150000000     0.660480000000     0.430910000000     0.10743    
H348     H      0.631080000000     0.693570000000     0.450450000000     0.011639   
H349     H      0.661640000000     0.560800000000     0.432630000000     0.0564722  
H350     H      0.694170000000     0.633240000000     0.449390000000     0.0572072  
H351     H      0.629810000000     0.837160000000     0.134130000000     0.104126   
H352     H      0.692670000000     0.899030000000     0.133480000000     0.0501447  
H353     H      0.659670000000     0.970860000000     0.152850000000     0.0508912  
H354     H      0.612260000000     0.816210000000     0.189760000000     0.113149   
H355     H      0.582260000000     0.889330000000     0.210910000000     0.00477061 
H356     H      0.713060000000     0.917930000000     0.188820000000     0.0529047  
H357     H      0.641200000000     0.950230000000     0.208190000000     0.0441842  
H358     H      0.948820000000     0.641900000000     0.202840000000     0.0977235  
H359     H      0.886620000000     0.580620000000     0.202860000000     0.0502835  
H360     H      0.814560000000     0.614450000000     0.188180000000     0.0527627  
H361     H      0.967540000000     0.662670000000     0.147580000000     0.13014    
H362     H      0.895280000000     0.696280000000     0.132410000000     0.00904554 
H363     H      0.865350000000     0.562560000000     0.147560000000     0.0532071  
H364     H      0.832900000000     0.635510000000     0.132980000000     0.0452334  
H365     H      0.893380000000     0.833640000000     0.453870000000     0.0985246  
H366     H      0.832910000000     0.897020000000     0.452190000000     0.0501461  
H367     H      0.867890000000     0.967850000000     0.432430000000     0.0553507  
H368     H      0.911860000000     0.811530000000     0.399120000000     0.106501   
H369     H      0.945530000000     0.883010000000     0.378290000000     0.00675834 
H370     H      0.813900000000     0.915760000000     0.396230000000     0.0554272  
H371     H      0.886910000000     0.946090000000     0.377850000000     0.0463631  
H372     H      0.884140000000     0.580860000000     0.380410000000     0.0874213  
H373     H      0.944890000000     0.644080000000     0.380680000000     0.0561853  
H374     H      0.910770000000     0.715830000000     0.398140000000     0.066911   
H375     H      0.864490000000     0.561090000000     0.435690000000     0.0937486  
H376     H      0.830740000000     0.633070000000     0.452780000000    -0.00277137 
H377     H      0.963590000000     0.664230000000     0.436200000000     0.0700769  
H378     H      0.890660000000     0.695600000000     0.452980000000     0.0540265  
H379     H      0.589810000000     0.875510000000     0.379080000000     0.105575   
H380     H      0.651720000000     0.939450000000     0.377540000000     0.0499069  
H381     H      0.675190000000     0.954890000000     0.457210000000     0.0533435  
H382     H      0.608760000000     0.819440000000     0.386190000000     0.136249   
H383     H      0.635290000000     0.835820000000     0.464960000000     0.0118399  
H384     H      0.708090000000     0.922270000000     0.385350000000     0.0552973  
H385     H      0.693320000000     0.898720000000     0.465080000000     0.0450998  
H386     H      0.942600000000     0.876670000000     0.203180000000     0.109721   
H387     H      0.883060000000     0.941220000000     0.206200000000     0.0504917  
H388     H      0.853110000000     0.954150000000     0.128010000000     0.0512998  
H389     H      0.922670000000     0.820600000000     0.200050000000     0.137352   
H390     H      0.891100000000     0.834450000000     0.122540000000     0.011546   
H391     H      0.825750000000     0.925820000000     0.204220000000     0.0537744  
H392     H      0.834010000000     0.897900000000     0.124460000000     0.0450948  
H393     H      0.586530000000     0.650350000000     0.704070000000     0.0944548  
H394     H      0.649130000000     0.588390000000     0.702000000000     0.0491497  
H395     H      0.676670000000     0.579540000000     0.622080000000     0.0519156  
H396     H      0.603840000000     0.707280000000     0.701660000000     0.110586   
H397     H      0.632140000000     0.697100000000     0.622260000000     0.00745085 
H398     H      0.705520000000     0.606690000000     0.698020000000     0.054315   
H399     H      0.692540000000     0.636820000000     0.619880000000     0.0457365  
H400     H      0.580320000000     0.641180000000     0.876070000000     0.0903805  
H401     H      0.641940000000     0.579770000000     0.877040000000     0.0489048  
H402     H      0.713330000000     0.613760000000     0.893910000000     0.0868961  
H403     H      0.559150000000     0.660480000000     0.930910000000     0.107435   
H404     H      0.631080000000     0.693570000000     0.950450000000     0.0116919  
H405     H      0.661640000000     0.560800000000     0.932630000000     0.0565107  
H406     H      0.694170000000     0.633240000000     0.949390000000     0.0572553  
H407     H      0.629810000000     0.837160000000     0.634130000000     0.10416    
H408     H      0.692670000000     0.899030000000     0.633470000000     0.0501713  
H409     H      0.659670000000     0.970860000000     0.652850000000     0.0509048  
H410     H      0.612260000000     0.816210000000     0.689770000000     0.113142   
H411     H      0.582260000000     0.889330000000     0.710910000000     0.0047678  
H412     H      0.713060000000     0.917930000000     0.688820000000     0.0529069  
H413     H      0.641200000000     0.950230000000     0.708190000000     0.044183   
H414     H      0.948820000000     0.641900000000     0.702840000000     0.097718   
H415     H      0.886620000000     0.580620000000     0.702860000000     0.0502786  
H416     H      0.814560000000     0.614450000000     0.688190000000     0.0527739  
H417     H      0.967540000000     0.662670000000     0.647580000000     0.130153   
H418     H      0.895280000000     0.696280000000     0.632410000000     0.0090859  
H419     H      0.865350000000     0.562560000000     0.647560000000     0.0532241  
H420     H      0.832900000000     0.635510000000     0.632980000000     0.0452737  
H421     H      0.893380000000     0.833640000000     0.953870000000     0.0985779  
H422     H      0.832910000000     0.897020000000     0.952190000000     0.0501978  
H423     H      0.867890000000     0.967850000000     0.932430000000     0.0553698  
H424     H      0.911860000000     0.811530000000     0.899120000000     0.106513   
H425     H      0.945530000000     0.883010000000     0.878290000000     0.00675611 
H426     H      0.813900000000     0.915760000000     0.896230000000     0.0554383  
H427     H      0.886910000000     0.946090000000     0.877850000000     0.0463601  
H428     H      0.884140000000     0.580860000000     0.880410000000     0.0874217  
H429     H      0.944890000000     0.644080000000     0.880680000000     0.056183   
H430     H      0.910770000000     0.715830000000     0.898140000000     0.0669242  
H431     H      0.864490000000     0.561090000000     0.935680000000     0.0937752  
H432     H      0.830740000000     0.633070000000     0.952780000000    -0.0027524  
H433     H      0.963590000000     0.664230000000     0.936200000000     0.0700984  
H434     H      0.890660000000     0.695600000000     0.952980000000     0.0540789  
H435     H      0.589810000000     0.875510000000     0.879090000000     0.1056     
H436     H      0.651720000000     0.939450000000     0.877540000000     0.0499128  
H437     H      0.675190000000     0.954890000000     0.957210000000     0.0534048  
H438     H      0.608760000000     0.819440000000     0.886190000000     0.136263   
H439     H      0.635290000000     0.835820000000     0.964960000000     0.011881   
H440     H      0.708090000000     0.922270000000     0.885350000000     0.0553018  
H441     H      0.693320000000     0.898720000000     0.965070000000     0.0451499  
H442     H      0.942600000000     0.876670000000     0.703180000000     0.109718   
H443     H      0.883060000000     0.941220000000     0.706200000000     0.0504891  
H444     H      0.853110000000     0.954150000000     0.628010000000     0.0513294  
H445     H      0.922670000000     0.820600000000     0.700050000000     0.137355   
H446     H      0.891100000000     0.834450000000     0.622540000000     0.0115852  
H447     H      0.825750000000     0.925820000000     0.704220000000     0.0537778  
H448     H      0.834010000000     0.897900000000     0.624460000000     0.0451342  
N1       N      0.123130000000     0.127450000000     0.119430000000    -0.190295   
N2       N      0.156020000000     0.158160000000     0.205100000000    -0.149829   
N3       N      0.166100000000     0.167870000000     0.392410000000    -0.186115   
N4       N      0.107210000000     0.107310000000     0.434070000000    -0.150405   
N5       N      0.106100000000     0.422970000000     0.151090000000    -0.190665   
N6       N      0.166240000000     0.363560000000     0.190690000000    -0.151197   
N7       N      0.362130000000     0.168330000000     0.190490000000    -0.1919     
N8       N      0.419580000000     0.109380000000     0.145300000000    -0.149378   
N9       N      0.420640000000     0.419110000000     0.436000000000    -0.187716   
N10      N      0.359300000000     0.360270000000     0.395880000000    -0.150135   
N11      N      0.357530000000     0.167620000000     0.394980000000    -0.18991    
N12      N      0.417500000000     0.109290000000     0.437840000000    -0.149984   
N13      N      0.123660000000     0.405080000000     0.462450000000    -0.188927   
N14      N      0.159500000000     0.369790000000     0.380140000000    -0.147716   
N15      N      0.403740000000     0.403570000000     0.121180000000    -0.188314   
N16      N      0.372920000000     0.371790000000     0.207290000000    -0.147646   
N17      N      0.123130000000     0.127450000000     0.619430000000    -0.190279   
N18      N      0.156020000000     0.158160000000     0.705110000000    -0.149864   
N19      N      0.166100000000     0.167870000000     0.892410000000    -0.186109   
N20      N      0.107210000000     0.107310000000     0.934070000000    -0.150389   
N21      N      0.106100000000     0.422970000000     0.651090000000    -0.190662   
N22      N      0.166240000000     0.363560000000     0.690690000000    -0.151201   
N23      N      0.362130000000     0.168330000000     0.690490000000    -0.191897   
N24      N      0.419580000000     0.109380000000     0.645300000000    -0.149378   
N25      N      0.420640000000     0.419110000000     0.936000000000    -0.187697   
N26      N      0.359300000000     0.360270000000     0.895880000000    -0.150128   
N27      N      0.357530000000     0.167620000000     0.894980000000    -0.189874   
N28      N      0.417500000000     0.109290000000     0.937840000000    -0.149966   
N29      N      0.123660000000     0.405080000000     0.962450000000    -0.189013   
N30      N      0.159500000000     0.369790000000     0.880140000000    -0.147732   
N31      N      0.403740000000     0.403570000000     0.621180000000    -0.188305   
N32      N      0.372920000000     0.371790000000     0.707290000000    -0.147646   
N33      N      0.123130000000     0.627460000000     0.119430000000    -0.190282   
N34      N      0.156020000000     0.658160000000     0.205100000000    -0.149828   
N35      N      0.166100000000     0.667870000000     0.392410000000    -0.186116   
N36      N      0.107210000000     0.607310000000     0.434070000000    -0.150396   
N37      N      0.106100000000     0.922970000000     0.151090000000    -0.190635   
N38      N      0.166240000000     0.863560000000     0.190690000000    -0.151216   
N39      N      0.362130000000     0.668330000000     0.190490000000    -0.191917   
N40      N      0.419580000000     0.609380000000     0.145300000000    -0.149369   
N41      N      0.420640000000     0.919110000000     0.436000000000    -0.187705   
N42      N      0.359300000000     0.860270000000     0.395880000000    -0.150113   
N43      N      0.357530000000     0.667620000000     0.394980000000    -0.189885   
N44      N      0.417500000000     0.609290000000     0.437840000000    -0.149978   
N45      N      0.123660000000     0.905080000000     0.462450000000    -0.188917   
N46      N      0.159500000000     0.869790000000     0.380140000000    -0.147726   
N47      N      0.403740000000     0.903570000000     0.121180000000    -0.188308   
N48      N      0.372920000000     0.871790000000     0.207290000000    -0.147621   
N49      N      0.123130000000     0.627460000000     0.619430000000    -0.190266   
N50      N      0.156020000000     0.658160000000     0.705110000000    -0.149862   
N51      N      0.166100000000     0.667870000000     0.892410000000    -0.186109   
N52      N      0.107210000000     0.607310000000     0.934070000000    -0.15038    
N53      N      0.106100000000     0.922970000000     0.651090000000    -0.190633   
N54      N      0.166240000000     0.863560000000     0.690690000000    -0.15122    
N55      N      0.362130000000     0.668330000000     0.690490000000    -0.191914   
N56      N      0.419580000000     0.609380000000     0.645300000000    -0.149369   
N57      N      0.420640000000     0.919110000000     0.936000000000    -0.187686   
N58      N      0.359300000000     0.860270000000     0.895880000000    -0.150106   
N59      N      0.357530000000     0.667620000000     0.894980000000    -0.189849   
N60      N      0.417500000000     0.609290000000     0.937840000000    -0.14996    
N61      N      0.123660000000     0.905080000000     0.962450000000    -0.189004   
N62      N      0.159500000000     0.869790000000     0.880140000000    -0.147741   
N63      N      0.403740000000     0.903570000000     0.621180000000    -0.188299   
N64      N      0.372920000000     0.871790000000     0.707290000000    -0.147621   
N65      N      0.623130000000     0.127450000000     0.119430000000    -0.190324   
N66      N      0.656020000000     0.158160000000     0.205100000000    -0.14981    
N67      N      0.666100000000     0.167870000000     0.392410000000    -0.186097   
N68      N      0.607210000000     0.107310000000     0.434070000000    -0.150401   
N69      N      0.606100000000     0.422970000000     0.151090000000    -0.190662   
N70      N      0.666240000000     0.363560000000     0.190690000000    -0.151197   
N71      N      0.862130000000     0.168330000000     0.190490000000    -0.191897   
N72      N      0.919580000000     0.109380000000     0.145300000000    -0.149387   
N73      N      0.920630000000     0.419110000000     0.436000000000    -0.18768    
N74      N      0.859300000000     0.360270000000     0.395880000000    -0.15014    
N75      N      0.857530000000     0.167620000000     0.394980000000    -0.189908   
N76      N      0.917500000000     0.109290000000     0.437840000000    -0.149973   
N77      N      0.623670000000     0.405080000000     0.462450000000    -0.188896   
N78      N      0.659500000000     0.369790000000     0.380140000000    -0.147715   
N79      N      0.903740000000     0.403570000000     0.121180000000    -0.188292   
N80      N      0.872920000000     0.371790000000     0.207290000000    -0.147647   
N81      N      0.623130000000     0.127450000000     0.619430000000    -0.190309   
N82      N      0.656020000000     0.158160000000     0.705110000000    -0.149845   
N83      N      0.666100000000     0.167870000000     0.892410000000    -0.18609    
N84      N      0.607210000000     0.107310000000     0.934070000000    -0.150385   
N85      N      0.606100000000     0.422970000000     0.651090000000    -0.190659   
N86      N      0.666240000000     0.363560000000     0.690690000000    -0.151201   
N87      N      0.862130000000     0.168330000000     0.690490000000    -0.191894   
N88      N      0.919580000000     0.109380000000     0.645300000000    -0.149387   
N89      N      0.920630000000     0.419110000000     0.936000000000    -0.187661   
N90      N      0.859300000000     0.360270000000     0.895880000000    -0.150133   
N91      N      0.857530000000     0.167620000000     0.894980000000    -0.189873   
N92      N      0.917500000000     0.109290000000     0.937840000000    -0.149955   
N93      N      0.623670000000     0.405080000000     0.962450000000    -0.188982   
N94      N      0.659500000000     0.369790000000     0.880140000000    -0.14773    
N95      N      0.903740000000     0.403570000000     0.621180000000    -0.188283   
N96      N      0.872920000000     0.371790000000     0.707290000000    -0.147647   
N97      N      0.623130000000     0.627460000000     0.119430000000    -0.190311   
N98      N      0.656020000000     0.658160000000     0.205100000000    -0.149809   
N99      N      0.666100000000     0.667870000000     0.392410000000    -0.186098   
N100     N      0.607210000000     0.607310000000     0.434070000000    -0.150392   
N101     N      0.606100000000     0.922970000000     0.151090000000    -0.190632   
N102     N      0.666240000000     0.863560000000     0.190690000000    -0.151216   
N103     N      0.862130000000     0.668330000000     0.190490000000    -0.191915   
N104     N      0.919580000000     0.609380000000     0.145300000000    -0.149378   
N105     N      0.920630000000     0.919110000000     0.436000000000    -0.187669   
N106     N      0.859300000000     0.860270000000     0.395880000000    -0.150118   
N107     N      0.857530000000     0.667620000000     0.394980000000    -0.189883   
N108     N      0.917500000000     0.609290000000     0.437840000000    -0.149967   
N109     N      0.623670000000     0.905080000000     0.462450000000    -0.188886   
N110     N      0.659500000000     0.869790000000     0.380140000000    -0.147725   
N111     N      0.903740000000     0.903570000000     0.121180000000    -0.188286   
N112     N      0.872920000000     0.871790000000     0.207290000000    -0.147622   
N113     N      0.623130000000     0.627460000000     0.619430000000    -0.190295   
N114     N      0.656020000000     0.658160000000     0.705110000000    -0.149843   
N115     N      0.666100000000     0.667870000000     0.892410000000    -0.186091   
N116     N      0.607210000000     0.607310000000     0.934070000000    -0.150376   
N117     N      0.606100000000     0.922970000000     0.651090000000    -0.19063    
N118     N      0.666240000000     0.863560000000     0.690690000000    -0.15122    
N119     N      0.862130000000     0.668330000000     0.690490000000    -0.191911   
N120     N      0.919580000000     0.609380000000     0.645300000000    -0.149378   
N121     N      0.920630000000     0.919110000000     0.936000000000    -0.187651   
N122     N      0.859300000000     0.860270000000     0.895880000000    -0.150111   
N123     N      0.857530000000     0.667620000000     0.894980000000    -0.189847   
N124     N      0.917500000000     0.609290000000     0.937840000000    -0.149949   
N125     N      0.623670000000     0.905080000000     0.962450000000    -0.188972   
N126     N      0.659500000000     0.869790000000     0.880140000000    -0.14774    
N127     N      0.903740000000     0.903570000000     0.621180000000    -0.188277   
N128     N      0.872920000000     0.871790000000     0.707290000000    -0.147622   
O1       O      0.416570000000     0.468580000000     0.081870000000    -0.363361   
O2       O      0.111680000000     0.062450000000     0.079870000000    -0.365163   
O3       O      0.051020000000     0.426080000000     0.096390000000    -0.30314    
O4       O      0.475710000000     0.104720000000     0.092190000000    -0.347244   
O5       O      0.103000000000     0.478110000000     0.096350000000    -0.367719   
O6       O      0.423680000000     0.052560000000     0.092710000000    -0.365146   
O7       O      0.058630000000     0.113380000000     0.079850000000    -0.313647   
O8       O      0.467740000000     0.415800000000     0.080160000000    -0.291194   
O9       O      0.423430000000     0.051990000000     0.489810000000    -0.3653     
O10      O      0.110810000000     0.470080000000     0.501510000000    -0.371925   
O11      O      0.477580000000     0.425110000000     0.488730000000    -0.308462   
O12      O      0.050650000000     0.103050000000     0.486840000000    -0.355292   
O13      O      0.102840000000     0.051040000000     0.487750000000    -0.367131   
O14      O      0.424860000000     0.476370000000     0.488360000000    -0.367389   
O15      O      0.475060000000     0.104550000000     0.489350000000    -0.359619   
O16      O      0.059000000000     0.417860000000     0.501940000000    -0.303061   
O17      O      0.513950000000     0.514700000000     0.061170000000    -0.59072    
O18      O      0.309890000000     0.361980000000     0.250250000000    -0.359557   
O19      O      0.219300000000     0.168700000000     0.247590000000    -0.357132   
O20      O      0.355600000000     0.225760000000     0.242360000000    -0.321977   
O21      O      0.172540000000     0.305300000000     0.241110000000    -0.356805   
O22      O      0.303790000000     0.173600000000     0.241060000000    -0.367397   
O23      O      0.224690000000     0.357340000000     0.240880000000    -0.362588   
O24      O      0.167130000000     0.220670000000     0.248860000000    -0.350144   
O25      O      0.360640000000     0.308590000000     0.249740000000    -0.337764   
O26      O      0.221720000000     0.360040000000     0.335870000000    -0.365753   
O27      O      0.300800000000     0.173810000000     0.342250000000    -0.327914   
O28      O      0.353350000000     0.302360000000     0.344740000000    -0.359274   
O29      O      0.173500000000     0.226740000000     0.342140000000    -0.323656   
O30      O      0.224410000000     0.173680000000     0.341560000000    -0.349783   
O31      O      0.302090000000     0.355270000000     0.343640000000    -0.365836   
O32      O      0.170200000000     0.307350000000     0.336320000000    -0.347484   
O33      O      0.352800000000     0.225800000000     0.343830000000    -0.366351   
O34      O      0.264030000000     0.265170000000     0.271580000000    -0.590083   
O35      O      0.416570000000     0.468580000000     0.581880000000    -0.363343   
O36      O      0.111680000000     0.062450000000     0.579870000000    -0.365131   
O37      O      0.051020000000     0.426080000000     0.596390000000    -0.303151   
O38      O      0.475710000000     0.104720000000     0.592190000000    -0.347254   
O39      O      0.103000000000     0.478110000000     0.596350000000    -0.36773    
O40      O      0.423680000000     0.052560000000     0.592710000000    -0.365149   
O41      O      0.058630000000     0.113380000000     0.579850000000    -0.313633   
O42      O      0.467740000000     0.415800000000     0.580160000000    -0.291173   
O43      O      0.423430000000     0.051990000000     0.989810000000    -0.365108   
O44      O      0.110810000000     0.470080000000     0.001510000000    -0.372387   
O45      O      0.477580000000     0.425110000000     0.988730000000    -0.308237   
O46      O      0.050650000000     0.103050000000     0.986840000000    -0.355099   
O47      O      0.102840000000     0.051040000000     0.987750000000    -0.366905   
O48      O      0.424860000000     0.476370000000     0.988360000000    -0.367192   
O49      O      0.475060000000     0.104550000000     0.989350000000    -0.359426   
O50      O      0.059000000000     0.417860000000     0.001940000000    -0.303526   
O51      O      0.513950000000     0.514700000000     0.561170000000    -0.590799   
O52      O      0.309890000000     0.361980000000     0.750250000000    -0.359555   
O53      O      0.219300000000     0.168700000000     0.747590000000    -0.357143   
O54      O      0.355600000000     0.225760000000     0.742360000000    -0.321976   
O55      O      0.172540000000     0.305300000000     0.741110000000    -0.356803   
O56      O      0.303790000000     0.173600000000     0.741060000000    -0.367397   
O57      O      0.224690000000     0.357340000000     0.740880000000    -0.362584   
O58      O      0.167130000000     0.220670000000     0.748860000000    -0.350155   
O59      O      0.360640000000     0.308590000000     0.749740000000    -0.337764   
O60      O      0.221720000000     0.360040000000     0.835870000000    -0.365714   
O61      O      0.300800000000     0.173810000000     0.842250000000    -0.327909   
O62      O      0.353350000000     0.302360000000     0.844740000000    -0.359272   
O63      O      0.173500000000     0.226740000000     0.842140000000    -0.323656   
O64      O      0.224410000000     0.173680000000     0.841560000000    -0.349781   
O65      O      0.302090000000     0.355270000000     0.843640000000    -0.365836   
O66      O      0.170200000000     0.307350000000     0.836320000000    -0.347445   
O67      O      0.352800000000     0.225800000000     0.843830000000    -0.366349   
O68      O      0.264030000000     0.265170000000     0.771580000000    -0.590079   
O69      O      0.416570000000     0.968580000000     0.081870000000    -0.363242   
O70      O      0.111680000000     0.562450000000     0.079870000000    -0.365147   
O71      O      0.051020000000     0.926080000000     0.096390000000    -0.303114   
O72      O      0.475710000000     0.604720000000     0.092190000000    -0.347241   
O73      O      0.103000000000     0.978110000000     0.096350000000    -0.36771    
O74      O      0.423680000000     0.552560000000     0.092710000000    -0.3651     
O75      O      0.058630000000     0.613380000000     0.079850000000    -0.313648   
O76      O      0.467740000000     0.915800000000     0.080160000000    -0.291189   
O77      O      0.423430000000     0.551990000000     0.489810000000    -0.365249   
O78      O      0.110810000000     0.970080000000     0.501510000000    -0.371845   
O79      O      0.477580000000     0.925110000000     0.488730000000    -0.308462   
O80      O      0.050650000000     0.603050000000     0.486840000000    -0.355293   
O81      O      0.102840000000     0.551040000000     0.487750000000    -0.367117   
O82      O      0.424860000000     0.976370000000     0.488360000000    -0.36727    
O83      O      0.475060000000     0.604550000000     0.489350000000    -0.359613   
O84      O      0.059000000000     0.917860000000     0.501940000000    -0.303065   
O85      O      0.513950000000     0.014700000000     0.061170000000    -0.590757   
O86      O      0.309890000000     0.861980000000     0.250250000000    -0.359519   
O87      O      0.219300000000     0.668700000000     0.247590000000    -0.357126   
O88      O      0.355600000000     0.725760000000     0.242360000000    -0.321976   
O89      O      0.172540000000     0.805300000000     0.241110000000    -0.356822   
O90      O      0.303790000000     0.673600000000     0.241060000000    -0.367394   
O91      O      0.224690000000     0.857330000000     0.240880000000    -0.362661   
O92      O      0.167130000000     0.720670000000     0.248860000000    -0.350143   
O93      O      0.360640000000     0.808580000000     0.249740000000    -0.337699   
O94      O      0.221720000000     0.860040000000     0.335870000000    -0.365754   
O95      O      0.300800000000     0.673810000000     0.342250000000    -0.327887   
O96      O      0.353350000000     0.802350000000     0.344740000000    -0.359206   
O97      O      0.173500000000     0.726740000000     0.342140000000    -0.323658   
O98      O      0.224410000000     0.673680000000     0.341560000000    -0.349781   
O99      O      0.302090000000     0.855270000000     0.343640000000    -0.365803   
O100     O      0.170200000000     0.807350000000     0.336320000000    -0.347485   
O101     O      0.352800000000     0.725800000000     0.343830000000    -0.366418   
O102     O      0.264030000000     0.765170000000     0.271580000000    -0.590086   
O103     O      0.416570000000     0.968580000000     0.581880000000    -0.363224   
O104     O      0.111680000000     0.562450000000     0.579870000000    -0.365116   
O105     O      0.051020000000     0.926080000000     0.596390000000    -0.303125   
O106     O      0.475710000000     0.604720000000     0.592190000000    -0.347251   
O107     O      0.103000000000     0.978110000000     0.596350000000    -0.367721   
O108     O      0.423680000000     0.552560000000     0.592710000000    -0.365103   
O109     O      0.058630000000     0.613380000000     0.579850000000    -0.313634   
O110     O      0.467740000000     0.915800000000     0.580160000000    -0.291168   
O111     O      0.423430000000     0.551990000000     0.989810000000    -0.365057   
O112     O      0.110810000000     0.970080000000     0.001510000000    -0.372307   
O113     O      0.477580000000     0.925110000000     0.988730000000    -0.308237   
O114     O      0.050650000000     0.603050000000     0.986840000000    -0.3551     
O115     O      0.102840000000     0.551040000000     0.987750000000    -0.366891   
O116     O      0.424860000000     0.976370000000     0.988360000000    -0.367072   
O117     O      0.475060000000     0.604550000000     0.989350000000    -0.35942    
O118     O      0.059000000000     0.917860000000     0.001940000000    -0.30353    
O119     O      0.513950000000     0.014700000000     0.561170000000    -0.590836   
O120     O      0.309890000000     0.861980000000     0.750250000000    -0.359517   
O121     O      0.219300000000     0.668700000000     0.747590000000    -0.357137   
O122     O      0.355600000000     0.725760000000     0.742360000000    -0.321974   
O123     O      0.172540000000     0.805300000000     0.741110000000    -0.35682    
O124     O      0.303790000000     0.673600000000     0.741060000000    -0.367393   
O125     O      0.224690000000     0.857330000000     0.740880000000    -0.362657   
O126     O      0.167130000000     0.720670000000     0.748860000000    -0.350154   
O127     O      0.360640000000     0.808580000000     0.749740000000    -0.337699   
O128     O      0.221720000000     0.860040000000     0.835870000000    -0.365715   
O129     O      0.300800000000     0.673810000000     0.842250000000    -0.327882   
O130     O      0.353350000000     0.802350000000     0.844740000000    -0.359204   
O131     O      0.173500000000     0.726740000000     0.842140000000    -0.323658   
O132     O      0.224410000000     0.673680000000     0.841560000000    -0.349779   
O133     O      0.302090000000     0.855270000000     0.843640000000    -0.365803   
O134     O      0.170200000000     0.807350000000     0.836320000000    -0.347447   
O135     O      0.352800000000     0.725800000000     0.843830000000    -0.366416   
O136     O      0.264030000000     0.765170000000     0.771580000000    -0.590082   
O137     O      0.916570000000     0.468580000000     0.081870000000    -0.363358   
O138     O      0.611680000000     0.062450000000     0.079870000000    -0.365163   
O139     O      0.551020000000     0.426080000000     0.096390000000    -0.303134   
O140     O      0.975710000000     0.104720000000     0.092190000000    -0.347171   
O141     O      0.603000000000     0.478110000000     0.096350000000    -0.367718   
O142     O      0.923680000000     0.052560000000     0.092710000000    -0.365142   
O143     O      0.558630000000     0.113380000000     0.079850000000    -0.313643   
O144     O      0.967740000000     0.415800000000     0.080160000000    -0.291122   
O145     O      0.923430000000     0.051990000000     0.489810000000    -0.365298   
O146     O      0.610810000000     0.470080000000     0.501510000000    -0.371908   
O147     O      0.977580000000     0.425110000000     0.488730000000    -0.308382   
O148     O      0.550650000000     0.103050000000     0.486840000000    -0.355279   
O149     O      0.602840000000     0.051040000000     0.487750000000    -0.367129   
O150     O      0.924860000000     0.476370000000     0.488360000000    -0.367374   
O151     O      0.975060000000     0.104550000000     0.489350000000    -0.359545   
O152     O      0.559000000000     0.417860000000     0.501940000000    -0.30304    
O153     O      0.013950000000     0.514700000000     0.061170000000    -0.59075    
O154     O      0.809890000000     0.361980000000     0.250250000000    -0.359549   
O155     O      0.719300000000     0.168700000000     0.247590000000    -0.357127   
O156     O      0.855610000000     0.225760000000     0.242360000000    -0.321829   
O157     O      0.672540000000     0.305300000000     0.241110000000    -0.356803   
O158     O      0.803790000000     0.173600000000     0.241060000000    -0.367369   
O159     O      0.724690000000     0.357340000000     0.240880000000    -0.362585   
O160     O      0.667130000000     0.220670000000     0.248860000000    -0.350143   
O161     O      0.860640000000     0.308590000000     0.249740000000    -0.337705   
O162     O      0.721720000000     0.360040000000     0.335870000000    -0.365752   
O163     O      0.800800000000     0.173810000000     0.342250000000    -0.327907   
O164     O      0.853350000000     0.302360000000     0.344740000000    -0.359214   
O165     O      0.673490000000     0.226740000000     0.342140000000    -0.323568   
O166     O      0.724410000000     0.173680000000     0.341560000000    -0.349762   
O167     O      0.802090000000     0.355270000000     0.343640000000    -0.365829   
O168     O      0.670200000000     0.307350000000     0.336320000000    -0.347493   
O169     O      0.852800000000     0.225800000000     0.343830000000    -0.366291   
O170     O      0.764020000000     0.265170000000     0.271580000000    -0.590116   
O171     O      0.916570000000     0.468580000000     0.581880000000    -0.36334    
O172     O      0.611680000000     0.062450000000     0.579870000000    -0.365132   
O173     O      0.551020000000     0.426080000000     0.596390000000    -0.303145   
O174     O      0.975710000000     0.104720000000     0.592190000000    -0.347181   
O175     O      0.603000000000     0.478110000000     0.596350000000    -0.367728   
O176     O      0.923680000000     0.052560000000     0.592710000000    -0.365146   
O177     O      0.558630000000     0.113380000000     0.579850000000    -0.313629   
O178     O      0.967740000000     0.415800000000     0.580160000000    -0.291101   
O179     O      0.923430000000     0.051990000000     0.989810000000    -0.365106   
O180     O      0.610810000000     0.470080000000     0.001510000000    -0.372371   
O181     O      0.977580000000     0.425110000000     0.988730000000    -0.308156   
O182     O      0.550650000000     0.103050000000     0.986840000000    -0.355085   
O183     O      0.602840000000     0.051040000000     0.987750000000    -0.366903   
O184     O      0.924860000000     0.476370000000     0.988360000000    -0.367176   
O185     O      0.975060000000     0.104550000000     0.989350000000    -0.359351   
O186     O      0.559000000000     0.417860000000     0.001940000000    -0.303506   
O187     O      0.013950000000     0.514700000000     0.561170000000    -0.590829   
O188     O      0.809890000000     0.361980000000     0.750250000000    -0.359548   
O189     O      0.719300000000     0.168700000000     0.747590000000    -0.357138   
O190     O      0.855610000000     0.225760000000     0.742360000000    -0.321828   
O191     O      0.672540000000     0.305300000000     0.741110000000    -0.356801   
O192     O      0.803790000000     0.173600000000     0.741060000000    -0.367369   
O193     O      0.724690000000     0.357340000000     0.740880000000    -0.362581   
O194     O      0.667130000000     0.220670000000     0.748860000000    -0.350154   
O195     O      0.860640000000     0.308590000000     0.749740000000    -0.337704   
O196     O      0.721720000000     0.360040000000     0.835870000000    -0.365713   
O197     O      0.800800000000     0.173810000000     0.842250000000    -0.327901   
O198     O      0.853350000000     0.302360000000     0.844740000000    -0.359212   
O199     O      0.673490000000     0.226740000000     0.842140000000    -0.323568   
O200     O      0.724410000000     0.173680000000     0.841560000000    -0.349761   
O201     O      0.802090000000     0.355270000000     0.843640000000    -0.365829   
O202     O      0.670200000000     0.307350000000     0.836320000000    -0.347454   
O203     O      0.852800000000     0.225800000000     0.843830000000    -0.366289   
O204     O      0.764020000000     0.265170000000     0.771580000000    -0.590112   
O205     O      0.916570000000     0.968580000000     0.081870000000    -0.363238   
O206     O      0.611680000000     0.562450000000     0.079870000000    -0.365148   
O207     O      0.551020000000     0.926080000000     0.096390000000    -0.303108   
O208     O      0.975710000000     0.604720000000     0.092190000000    -0.347168   
O209     O      0.603000000000     0.978110000000     0.096350000000    -0.367709   
O210     O      0.923680000000     0.552560000000     0.092710000000    -0.365097   
O211     O      0.558630000000     0.613380000000     0.079850000000    -0.313644   
O212     O      0.967740000000     0.915800000000     0.080160000000    -0.291118   
O213     O      0.923430000000     0.551990000000     0.489810000000    -0.365246   
O214     O      0.610810000000     0.970080000000     0.501510000000    -0.371828   
O215     O      0.977580000000     0.925110000000     0.488730000000    -0.308381   
O216     O      0.550650000000     0.603050000000     0.486840000000    -0.355279   
O217     O      0.602840000000     0.551040000000     0.487750000000    -0.367115   
O218     O      0.924860000000     0.976370000000     0.488360000000    -0.367255   
O219     O      0.975060000000     0.604550000000     0.489350000000    -0.359538   
O220     O      0.559000000000     0.917860000000     0.501940000000    -0.303044   
O221     O      0.013950000000     0.014700000000     0.061170000000    -0.590787   
O222     O      0.809890000000     0.861980000000     0.250250000000    -0.359511   
O223     O      0.719300000000     0.668700000000     0.247590000000    -0.357121   
O224     O      0.855610000000     0.725760000000     0.242360000000    -0.321828   
O225     O      0.672540000000     0.805300000000     0.241110000000    -0.35682    
O226     O      0.803790000000     0.673600000000     0.241060000000    -0.367366   
O227     O      0.724690000000     0.857330000000     0.240880000000    -0.362658   
O228     O      0.667130000000     0.720670000000     0.248860000000    -0.350142   
O229     O      0.860640000000     0.808580000000     0.249740000000    -0.33764    
O230     O      0.721720000000     0.860040000000     0.335870000000    -0.365753   
O231     O      0.800800000000     0.673810000000     0.342250000000    -0.32788    
O232     O      0.853350000000     0.802350000000     0.344740000000    -0.359147   
O233     O      0.673490000000     0.726740000000     0.342140000000    -0.32357    
O234     O      0.724410000000     0.673680000000     0.341560000000    -0.349761   
O235     O      0.802090000000     0.855270000000     0.343640000000    -0.365796   
O236     O      0.670200000000     0.807350000000     0.336320000000    -0.347494   
O237     O      0.852800000000     0.725800000000     0.343830000000    -0.366359   
O238     O      0.764020000000     0.765170000000     0.271580000000    -0.590119   
O239     O      0.916570000000     0.968580000000     0.581880000000    -0.36322    
O240     O      0.611680000000     0.562450000000     0.579870000000    -0.365117   
O241     O      0.551020000000     0.926080000000     0.596390000000    -0.303119   
O242     O      0.975710000000     0.604720000000     0.592190000000    -0.347178   
O243     O      0.603000000000     0.978110000000     0.596350000000    -0.36772    
O244     O      0.923680000000     0.552560000000     0.592710000000    -0.3651     
O245     O      0.558630000000     0.613380000000     0.579850000000    -0.31363    
O246     O      0.967740000000     0.915800000000     0.580160000000    -0.291097   
O247     O      0.923430000000     0.551990000000     0.989810000000    -0.365054   
O248     O      0.610810000000     0.970080000000     0.001510000000    -0.37229    
O249     O      0.977580000000     0.925110000000     0.988730000000    -0.308156   
O250     O      0.550650000000     0.603050000000     0.986840000000    -0.355086   
O251     O      0.602840000000     0.551040000000     0.987750000000    -0.366889   
O252     O      0.924860000000     0.976370000000     0.988360000000    -0.367057   
O253     O      0.975060000000     0.604550000000     0.989350000000    -0.359345   
O254     O      0.559000000000     0.917860000000     0.001940000000    -0.303509   
O255     O      0.013950000000     0.014700000000     0.561170000000    -0.590866   
O256     O      0.809890000000     0.861980000000     0.750250000000    -0.35951    
O257     O      0.719300000000     0.668700000000     0.747590000000    -0.357132   
O258     O      0.855610000000     0.725760000000     0.742360000000    -0.321826   
O259     O      0.672540000000     0.805300000000     0.741110000000    -0.356818   
O260     O      0.803790000000     0.673600000000     0.741060000000    -0.367366   
O261     O      0.724690000000     0.857330000000     0.740880000000    -0.362654   
O262     O      0.667130000000     0.720670000000     0.748860000000    -0.350153   
O263     O      0.860640000000     0.808580000000     0.749740000000    -0.337639   
O264     O      0.721720000000     0.860040000000     0.835870000000    -0.365714   
O265     O      0.800800000000     0.673810000000     0.842250000000    -0.327874   
O266     O      0.853350000000     0.802350000000     0.844740000000    -0.359144   
O267     O      0.673490000000     0.726740000000     0.842140000000    -0.32357    
O268     O      0.724410000000     0.673680000000     0.841560000000    -0.349759   
O269     O      0.802090000000     0.855270000000     0.843640000000    -0.365796   
O270     O      0.670200000000     0.807350000000     0.836320000000    -0.347455   
O271     O      0.852800000000     0.725800000000     0.843830000000    -0.366356   
O272     O      0.764020000000     0.765170000000     0.771580000000    -0.590115   


