data_structure

_audit_creation_method RASPA-1.0
_audit_creation_date 2023-6-4
_audit_author_name 'Poobodin Mano'

_cell_length_a    22.8556
_cell_length_b    23.4458
_cell_length_c    24.087
_cell_angle_alpha 87.1377
_cell_angle_beta  93.8215
_cell_angle_gamma 120.432
_cell_volume      11102.5

_symmetry_cell_setting          triclinic
_symmetry_space_group_name_Hall 'P 1'
_symmetry_space_group_name_H-M  'P 1'
_symmetry_Int_Tables_number     1

_symmetry_equiv_pos_as_xyz 'x,y,z'

loop_
_atom_site_label
_atom_site_type_symbol
_atom_site_fract_x
_atom_site_fract_y
_atom_site_fract_z
_atom_site_charge
C1       C      0.072710000000     0.176440000000     0.031960000000     0.454134   
C2       C      0.939090000000     0.929730000000     0.999430000000     0.484786   
C3       C      0.116120000000     0.100080000000     0.925290000000     0.482568   
C4       C      0.916310000000     0.974530000000     0.139360000000     0.403052   
C5       C      0.085180000000     0.021520000000     0.200080000000     0.468779   
C6       C      0.228850000000     0.055040000000     0.000920000000     0.480166   
C7       C      0.205170000000     0.190110000000     0.122940000000     0.428756   
C8       C      0.053260000000     0.885110000000     0.053680000000     0.451976   
C9       C      0.061610000000     0.048220000000     0.409020000000     0.367779   
C10      C      0.112950000000     0.225950000000     0.616970000000     0.473368   
C11      C      0.979790000000     0.109110000000     0.527280000000     0.464391   
C12      C      0.252340000000     0.180120000000     0.504790000000     0.455341   
C13      C      0.216520000000     0.064140000000     0.611330000000     0.47564    
C14      C      0.955210000000     0.958250000000     0.582750000000     0.484852   
C15      C      0.099890000000     0.952700000000     0.481740000000     0.378036   
C16      C      0.141040000000     0.120290000000     0.703000000000     0.476195   
C17      C      0.914170000000     0.372130000000     0.003970000000     0.497045   
C18      C      0.120660000000     0.713820000000     0.018280000000     0.38655    
C19      C      0.903940000000     0.498670000000     0.059620000000     0.441906   
C20      C      0.057610000000     0.567910000000     0.907470000000     0.503397   
C21      C      0.199680000000     0.553440000000     0.989150000000     0.471445   
C22      C      0.026310000000     0.533600000000     0.181560000000     0.449288   
C23      C      0.056680000000     0.376520000000     0.072280000000     0.491029   
C24      C      0.174680000000     0.655030000000     0.122970000000     0.450307   
C25      C      0.926820000000     0.415160000000     0.520480000000     0.46253    
C26      C      0.095050000000     0.735720000000     0.522340000000     0.416065   
C27      C      0.946500000000     0.564730000000     0.546630000000     0.4689     
C28      C      0.087370000000     0.569800000000     0.401300000000     0.522633   
C29      C      0.207420000000     0.550730000000     0.491940000000     0.509476   
C30      C      0.052480000000     0.598690000000     0.678930000000     0.438423   
C31      C      0.070500000000     0.422160000000     0.604620000000     0.501288   
C32      C      0.219800000000     0.703020000000     0.599640000000     0.485859   
C33      C      0.457340000000     0.069250000000     0.988670000000     0.455137   
C34      C      0.529770000000     0.868130000000     0.033910000000     0.430761   
C35      C      0.580350000000     0.066520000000     0.927510000000     0.457381   
C36      C      0.417810000000     0.877420000000     0.115750000000     0.456006   
C37      C      0.525770000000     0.023670000000     0.197680000000     0.467191   
C38      C      0.715790000000     0.132910000000     0.029150000000     0.443066   
C39      C      0.538710000000     0.151440000000     0.117450000000     0.429384   
C40      C      0.691570000000     0.995470000000     0.097540000000     0.438639   
C41      C      0.433830000000     0.077960000000     0.584560000000     0.382656   
C42      C      0.606860000000     0.947930000000     0.502190000000     0.467657   
C43      C      0.562120000000     0.049840000000     0.422090000000     0.447551   
C44      C      0.463980000000     0.934860000000     0.616830000000     0.491456   
C45      C      0.604550000000     0.057440000000     0.699700000000     0.486763   
C46      C      0.680810000000     0.210150000000     0.486250000000     0.446775   
C47      C      0.586200000000     0.206640000000     0.586570000000     0.455111   
C48      C      0.748240000000     0.073670000000     0.584130000000     0.45178    
C49      C      0.404340000000     0.395020000000     0.036950000000     0.487183   
C50      C      0.549620000000     0.671880000000     0.978020000000     0.438457   
C51      C      0.424100000000     0.548260000000     0.096970000000     0.498969   
C52      C      0.574790000000     0.548940000000     0.909300000000     0.465155   
C53      C      0.676250000000     0.515800000000     0.016030000000     0.450518   
C54      C      0.582110000000     0.596850000000     0.185790000000     0.534211   
C55      C      0.555620000000     0.399950000000     0.097100000000     0.423344   
C56      C      0.696720000000     0.718520000000     0.065180000000     0.429501   
C57      C      0.442020000000     0.411840000000     0.523820000000     0.402555   
C58      C      0.597450000000     0.731650000000     0.511020000000     0.47221    
C59      C      0.439790000000     0.555570000000     0.567880000000     0.490044   
C60      C      0.607910000000     0.619070000000     0.414420000000     0.45919    
C61      C      0.718340000000     0.574660000000     0.494790000000     0.482284   
C62      C      0.556530000000     0.558990000000     0.682810000000     0.475186   
C63      C      0.599770000000     0.445920000000     0.572430000000     0.447463   
C64      C      0.715930000000     0.733040000000     0.612690000000     0.497543   
C65      C      0.633580000000     0.563800000000     0.823220000000    -0.00543723 
C66      C      0.510160000000     0.481940000000     0.826910000000     0.00985401 
C67      C      0.621550000000     0.593650000000     0.769730000000    -0.00727342 
C68      C      0.496230000000     0.505080000000     0.768960000000    -0.0532069  
C69      C      0.441970000000     0.445820000000     0.737050000000     0.319351   
C70      C      0.663260000000     0.661090000000     0.325080000000    -0.00521996 
C71      C      0.559440000000     0.548910000000     0.333750000000     0.0113762  
C72      C      0.638060000000     0.668210000000     0.265840000000    -0.00965895 
C73      C      0.531240000000     0.558240000000     0.277710000000    -0.0520208  
C74      C      0.481270000000     0.490330000000     0.254550000000     0.315168   
C75      C      0.531640000000     0.787700000000     0.504570000000    -0.00735402 
C76      C      0.651770000000     0.842730000000     0.466400000000     0.0106523  
C77      C      0.520640000000     0.838030000000     0.469540000000    -0.011799   
C78      C      0.631590000000     0.887310000000     0.431010000000    -0.0574041  
C79      C      0.690910000000     0.947480000000     0.405950000000     0.310855   
C80      C      0.530370000000     0.271250000000     0.574360000000    -0.00502685 
C81      C      0.628330000000     0.308810000000     0.644700000000     0.0134158  
C82      C      0.569610000000     0.336590000000     0.545210000000    -0.00843847 
C83      C      0.622820000000     0.374100000000     0.643030000000    -0.0619633  
C84      C      0.577860000000     0.371060000000     0.687830000000     0.321154   
C85      C      0.615010000000     0.129290000000     0.838390000000    -0.00523012 
C86      C      0.581900000000     0.007840000000     0.846740000000     0.0190959  
C87      C      0.590160000000     0.111530000000     0.777610000000    -0.00591386 
C88      C      0.621310000000     0.021290000000     0.793460000000    -0.0546444  
C89      C      0.695500000000     0.044630000000     0.805450000000     0.320759   
C90      C      0.598890000000     0.086560000000     0.278100000000    -0.00668082 
C91      C      0.473470000000     0.032840000000     0.282050000000     0.00945482 
C92      C      0.602360000000     0.049020000000     0.330140000000    -0.0113444  
C93      C      0.476710000000     0.000050000000     0.339130000000    -0.057954   
C94      C      0.421040000000     0.993950000000     0.374040000000     0.320018   
C95      C      0.591760000000     0.786340000000     0.944840000000    -0.00989795 
C96      C      0.469160000000     0.711020000000     0.947480000000     0.00996505 
C97      C      0.594740000000     0.823400000000     0.996940000000    -0.00859364 
C98      C      0.465780000000     0.769230000000     0.974720000000    -0.0595106  
C99      C      0.444360000000     0.804160000000     0.930620000000     0.321905   
C100     C      0.482690000000     0.218580000000     0.118030000000    -0.0115795  
C101     C      0.606940000000     0.271440000000     0.144830000000     0.0113761  
C102     C      0.503830000000     0.281140000000     0.082080000000    -0.0123466  
C103     C      0.599870000000     0.334370000000     0.154920000000    -0.0604335  
C104     C      0.579860000000     0.335340000000     0.213230000000     0.310962   
C105     C      0.753500000000     0.320830000000     0.442170000000    -0.0141081  
C106     C      0.745650000000     0.306560000000     0.543840000000     0.0165624  
C107     C      0.832590000000     0.350220000000     0.450090000000    -0.0165619  
C108     C      0.817200000000     0.317020000000     0.550880000000    -0.0657426  
C109     C      0.842640000000     0.329300000000     0.611570000000     0.316719   
C110     C      0.342500000000     0.752920000000     0.621060000000    -0.00835439 
C111     C      0.280850000000     0.812380000000     0.641940000000     0.0101441  
C112     C      0.403920000000     0.816320000000     0.645260000000    -0.00818313 
C113     C      0.337480000000     0.871680000000     0.609490000000    -0.0480052  
C114     C      0.322680000000     0.865520000000     0.546940000000     0.30998    
C115     C      0.836030000000     0.617740000000     0.474060000000    -0.00472498 
C116     C      0.761520000000     0.498130000000     0.505550000000     0.0134654  
C117     C      0.887470000000     0.594820000000     0.472080000000    -0.00779461 
C118     C      0.821050000000     0.509750000000     0.547080000000    -0.0582468  
C119     C      0.814570000000     0.533900000000     0.602120000000     0.320265   
C120     C      0.281910000000     0.503680000000     0.480320000000    -0.00636596 
C121     C      0.325160000000     0.611550000000     0.528840000000     0.0137145  
C122     C      0.325370000000     0.487230000000     0.523000000000    -0.0117524  
C123     C      0.348990000000     0.584540000000     0.578860000000    -0.0573438  
C124     C      0.397520000000     0.639000000000     0.617890000000     0.316272   
C125     C      0.996860000000     0.520880000000     0.818080000000    -0.00137855 
C126     C      0.059880000000     0.644630000000     0.829570000000     0.0107687  
C127     C      0.032060000000     0.532940000000     0.763990000000    -0.00706484 
C128     C      0.036650000000     0.644080000000     0.766000000000    -0.0581617  
C129     C      0.966930000000     0.636660000000     0.759860000000     0.32205    
C130     C      0.011550000000     0.578230000000     0.267940000000    -0.0104636  
C131     C      0.042790000000     0.489530000000     0.272550000000     0.0102584  
C132     C      0.068820000000     0.617360000000     0.312320000000    -0.0098061  
C133     C      0.104040000000     0.532370000000     0.310790000000    -0.0525128  
C134     C      0.130420000000     0.492360000000     0.343530000000     0.315478   
C135     C      0.801360000000     0.299060000000     0.038330000000     0.00307382 
C136     C      0.829800000000     0.276140000000     0.947820000000     0.0081657  
C137     C      0.803280000000     0.239940000000     0.065310000000    -0.0179542  
C138     C      0.821400000000     0.209920000000     0.973040000000    -0.0598909  
C139     C      0.799520000000     0.159380000000     0.928500000000     0.320204   
C140     C      0.242000000000     0.767130000000     0.163640000000    -0.00550377 
C141     C      0.294210000000     0.698280000000     0.163340000000     0.011189   
C142     C      0.294510000000     0.819180000000     0.124790000000    -0.0114757  
C143     C      0.358250000000     0.755930000000     0.135090000000    -0.0612378  
C144     C      0.421830000000     0.761960000000     0.164220000000     0.311048   
C145     C      0.753730000000     0.500420000000     0.082510000000    -0.0105772  
C146     C      0.739930000000     0.466410000000     0.982080000000     0.011662   
C147     C      0.788520000000     0.458560000000     0.089080000000    -0.0124524  
C148     C      0.817620000000     0.493480000000     0.988630000000    -0.0605483  
C149     C      0.840040000000     0.466920000000     0.943780000000     0.310456   
C150     C      0.363530000000     0.608460000000     0.075500000000    -0.00589977 
C151     C      0.346460000000     0.519600000000     0.013060000000     0.0047815  
C152     C      0.292110000000     0.595610000000     0.057680000000    -0.018159   
C153     C      0.272750000000     0.502750000000     0.996980000000    -0.056955   
C154     C      0.256280000000     0.481320000000     0.937090000000     0.313075   
C155     C      0.797230000000     0.811890000000     0.548650000000     0.0242526  
C156     C      0.791100000000     0.845540000000     0.644290000000     0.0181843  
C157     C      0.873320000000     0.848110000000     0.553880000000    -0.0181571  
C158     C      0.868990000000     0.884190000000     0.650570000000    -0.0579111  
C159     C      0.889320000000     0.943210000000     0.686530000000     0.312605   
C160     C      0.333840000000     0.265460000000     0.568690000000     0.0094512  
C161     C      0.364150000000     0.258080000000     0.473040000000     0.00868366 
C162     C      0.330740000000     0.327140000000     0.552290000000    -0.0200986  
C163     C      0.364760000000     0.323220000000     0.457140000000    -0.0636313  
C164     C      0.412130000000     0.360620000000     0.410740000000     0.314268   
C165     C      0.856900000000     0.160960000000     0.550430000000    -0.00553606 
C166     C      0.816960000000     0.039440000000     0.534770000000     0.00942672 
C167     C      0.929630000000     0.175720000000     0.542130000000    -0.0141922  
C168     C      0.865850000000     0.071820000000     0.486600000000    -0.0546397  
C169     C      0.872430000000     0.022950000000     0.452660000000     0.318573   
C170     C      0.374120000000     0.127810000000     0.622600000000    -0.0128891  
C171     C      0.309500000000     0.016960000000     0.572660000000     0.00505736 
C172     C      0.321330000000     0.098230000000     0.667350000000    -0.0043332  
C173     C      0.264750000000     0.990990000000     0.623440000000    -0.0496295  
C174     C      0.198330000000     0.928120000000     0.615310000000     0.318327   
C175     C      0.025330000000     0.786790000000     0.515940000000    -0.00995898 
C176     C      0.101050000000     0.800940000000     0.436660000000     0.0179342  
C177     C      0.013250000000     0.835000000000     0.480200000000    -0.0126259  
C178     C      0.115250000000     0.872840000000     0.425280000000    -0.0575858  
C179     C      0.190710000000     0.921270000000     0.423500000000     0.324564   
C180     C      0.179770000000     0.347150000000     0.612380000000    -0.0051095  
C181     C      0.084560000000     0.289550000000     0.678550000000     0.0113373  
C182     C      0.149190000000     0.387010000000     0.587010000000    -0.00986034 
C183     C      0.097460000000     0.361200000000     0.681850000000    -0.0534398  
C184     C      0.044580000000     0.362650000000     0.715440000000     0.309531   
C185     C      0.069710000000     0.075260000000     0.782420000000     0.00278358 
C186     C      0.177510000000     0.188530000000     0.787340000000     0.0158053  
C187     C      0.057580000000     0.098570000000     0.835780000000    -0.0140167  
C188     C      0.185990000000     0.171950000000     0.849030000000    -0.057259   
C189     C      0.233530000000     0.144420000000     0.852850000000     0.320171   
C190     C      0.048860000000     0.959610000000     0.288240000000    -0.0097409  
C191     C      0.151780000000     0.070910000000     0.286740000000     0.0111325  
C192     C      0.012460000000     0.987000000000     0.321050000000    -0.0203799  
C193     C      0.115390000000     0.099750000000     0.317060000000    -0.0531968  
C194     C      0.164470000000     0.162760000000     0.347130000000     0.320003   
C195     C      0.804100000000     0.749890000000     0.020560000000    -0.00749298 
C196     C      0.750230000000     0.817010000000     0.002630000000     0.0136285  
C197     C      0.874420000000     0.812510000000     0.022880000000    -0.0141383  
C198     C      0.818080000000     0.882320000000     0.004870000000    -0.0627318  
C199     C      0.815980000000     0.928960000000     0.959960000000     0.310177   
C200     C      0.280760000000     0.311550000000     0.124890000000    -0.00434796 
C201     C      0.302290000000     0.244230000000     0.060570000000     0.0203892  
C202     C      0.296240000000     0.362400000000     0.077130000000    -0.0124469  
C203     C      0.306160000000     0.290330000000     0.011600000000    -0.0677924  
C204     C      0.344530000000     0.288690000000     0.963340000000     0.308251   
C205     C      0.789610000000     0.909270000000     0.147410000000    -0.0106434  
C206     C      0.857240000000     0.030610000000     0.169350000000     0.0112476  
C207     C      0.737810000000     0.920870000000     0.110700000000    -0.00639859 
C208     C      0.786550000000     0.025910000000     0.167310000000    -0.0562285  
C209     C      0.753660000000     0.005380000000     0.222770000000     0.315353   
C210     C      0.352740000000     0.113940000000     0.011110000000    -0.00360385 
C211     C      0.288790000000     0.005730000000     0.959830000000     0.0111858  
C212     C      0.408430000000     0.138620000000     0.969460000000    -0.0110644  
C213     C      0.352460000000     0.030130000000     0.925260000000    -0.0538933  
C214     C      0.361300000000     0.974600000000     0.905910000000     0.321066   
C215     C      0.101490000000     0.777170000000     0.087400000000    -0.0135015  
C216     C      0.127400000000     0.818070000000     0.989230000000     0.0100487  
C217     C      0.033020000000     0.775400000000     0.081160000000    -0.0148521  
C218     C      0.056340000000     0.811040000000     0.983480000000    -0.0531514  
C219     C      0.048720000000     0.851210000000     0.935400000000     0.300673   
C220     C      0.126460000000     0.326240000000     0.070790000000    -0.00467737 
C221     C      0.002340000000     0.256060000000     0.083420000000     0.00878641 
C222     C      0.116920000000     0.294930000000     0.013450000000    -0.0152694  
C223     C      0.994880000000     0.223200000000     0.026710000000    -0.0567258  
C224     C      0.933400000000     0.153730000000     0.019840000000     0.305465   
Co1      Co     0.063080000000     0.100740000000     0.119650000000     0.986633   
Co2      Co     0.082960000000     0.989230000000     0.986610000000     1.1464     
Co3      Co     0.176970000000     0.127410000000     0.038030000000     1.09353    
Co4      Co     0.006340000000     0.976030000000     0.097540000000     1.02316    
Co5      Co     0.140740000000     0.054590000000     0.513130000000     0.884862   
Co6      Co     0.040300000000     0.078470000000     0.626980000000     1.19143    
Co7      Co     0.046460000000     0.041870000000     0.502170000000     0.929699   
Co8      Co     0.188790000000     0.174800000000     0.592790000000     1.17942    
Co9      Co     0.050050000000     0.457200000000     0.977020000000     1.16615    
Co10     Co     0.033590000000     0.599220000000     0.078770000000     0.898902   
Co11     Co     0.995860000000     0.447480000000     0.101790000000     1.11347    
Co12     Co     0.123390000000     0.613130000000     0.021060000000     1.00573    
Co13     Co     0.063130000000     0.476710000000     0.495220000000     1.15966    
Co14     Co     0.079250000000     0.643150000000     0.568850000000     1.05243    
Co15     Co     0.016610000000     0.502190000000     0.610490000000     1.08836    
Co16     Co     0.156770000000     0.645950000000     0.495170000000     1.01502    
Co17     Co     0.457680000000     0.006870000000     0.086870000000     1.04747    
Co18     Co     0.600820000000     0.995310000000     0.003790000000     1.03375    
Co19     Co     0.596980000000     0.122710000000     0.038630000000     1.04979    
Co20     Co     0.568820000000     0.962340000000     0.128970000000     1.0543     
Co21     Co     0.537700000000     0.080410000000     0.599940000000     1.11076    
Co22     Co     0.673960000000     0.094950000000     0.512450000000     1.13917    
Co23     Co     0.540630000000     0.108930000000     0.503570000000     0.870742   
Co24     Co     0.606720000000     0.987560000000     0.608200000000     1.10475    
Co25     Co     0.530550000000     0.468500000000     0.994950000000     1.02732    
Co26     Co     0.557890000000     0.640230000000     0.083980000000     1.08078    
Co27     Co     0.500510000000     0.477140000000     0.114610000000     1.14165    
Co28     Co     0.648480000000     0.616850000000     0.009720000000     1.02738    
Co29     Co     0.574620000000     0.518470000000     0.484260000000     0.932163   
Co30     Co     0.572210000000     0.650590000000     0.602350000000     1.1579     
Co31     Co     0.530350000000     0.506580000000     0.570920000000     1.02064    
Co32     Co     0.686690000000     0.668170000000     0.520550000000     1.14411    
H1       H      0.616830000000     0.637040000000     0.779440000000     0.0505427  
H2       H      0.678610000000     0.603450000000     0.846230000000     0.0481334  
H3       H      0.475390000000     0.537840000000     0.776020000000     0.0704913  
H4       H      0.667310000000     0.611430000000     0.744900000000     0.0582089  
H5       H      0.645220000000     0.524690000000     0.813880000000     0.0556241  
H6       H      0.517120000000     0.438630000000     0.823130000000     0.0508181  
H7       H      0.464650000000     0.465130000000     0.851730000000     0.0528284  
H8       H      0.347810000000     0.406110000000     0.699070000000     0.182584   
H9       H      0.613830000000     0.699040000000     0.266680000000     0.0488007  
H10      H      0.690140000000     0.710760000000     0.344280000000     0.0439021  
H11      H      0.501870000000     0.583140000000     0.284800000000     0.0706658  
H12      H      0.683210000000     0.694790000000     0.239890000000     0.0483311  
H13      H      0.700090000000     0.643550000000     0.323180000000     0.0459911  
H14      H      0.587590000000     0.522220000000     0.329350000000     0.0475947  
H15      H      0.515550000000     0.517150000000     0.359920000000     0.0542386  
H16      H      0.468780000000     0.400850000000     0.236820000000     0.181599   
H17      H      0.497640000000     0.817170000000     0.427910000000     0.0482603  
H18      H      0.484460000000     0.738840000000     0.499380000000     0.0582078  
H19      H      0.602030000000     0.858140000000     0.393740000000     0.0646813  
H20      H      0.483050000000     0.846980000000     0.488670000000     0.0599503  
H21      H      0.538590000000     0.801520000000     0.549030000000     0.0581953  
H22      H      0.686950000000     0.871650000000     0.501550000000     0.0466219  
H23      H      0.678940000000     0.826770000000     0.440090000000     0.0538244  
H24      H      0.775040000000     0.975830000000     0.362860000000     0.190572   
H25      H      0.610170000000     0.338290000000     0.520810000000     0.0496615  
H26      H      0.496160000000     0.233150000000     0.543700000000     0.0470799  
H27      H      0.674650000000     0.415840000000     0.653090000000     0.069838   
H28      H      0.532720000000     0.341280000000     0.515610000000     0.0539959  
H29      H      0.495620000000     0.272570000000     0.603570000000     0.0570032  
H30      H      0.620730000000     0.286280000000     0.687250000000     0.0493383  
H31      H      0.681010000000     0.323980000000     0.634990000000     0.0358185  
H32      H      0.491710000000     0.310720000000     0.728510000000     0.197472   
H33      H      0.533730000000     0.086660000000     0.774790000000     0.0607255  
H34      H      0.593350000000     0.158450000000     0.853590000000     0.044571   
H35      H      0.599010000000     0.972400000000     0.773180000000     0.0603869  
H36      H      0.610800000000     0.158200000000     0.752330000000     0.0558534  
H37      H      0.671030000000     0.160900000000     0.840490000000     0.0702363  
H38      H      0.595950000000     0.978450000000     0.876680000000     0.0410366  
H39      H      0.526690000000     0.976990000000     0.835690000000     0.050062   
H40      H      0.760480000000     0.014010000000     0.835840000000     0.1866     
H41      H      0.597500000000     0.001460000000     0.318410000000     0.0582845  
H42      H      0.641510000000     0.097580000000     0.251530000000     0.059005   
H43      H      0.465000000000     0.949030000000     0.330290000000     0.0696827  
H44      H      0.653740000000     0.079600000000     0.350190000000     0.0593196  
H45      H      0.605970000000     0.135040000000     0.289860000000     0.0494272  
H46      H      0.474600000000     0.080070000000     0.288480000000     0.0571086  
H47      H      0.424590000000     0.999320000000     0.259270000000     0.0476932  
H48      H      0.382470000000     0.045330000000     0.407190000000     0.194309   
H49      H      0.609230000000     0.803510000000     0.034540000000     0.0517328  
H50      H      0.640070000000     0.789100000000     0.937970000000     0.0448393  
H51      H      0.424700000000     0.746020000000     0.004810000000     0.0639813  
H52      H      0.634540000000     0.876030000000     0.990900000000     0.0429852  
H53      H      0.581360000000     0.809680000000     0.907100000000     0.0581235  
H54      H      0.452660000000     0.707020000000     0.902610000000     0.0481482  
H55      H      0.430850000000     0.663150000000     0.965330000000     0.0484898  
H56      H      0.472320000000     0.860320000000     0.859900000000     0.186852   
H57      H      0.527160000000     0.278630000000     0.043880000000     0.0459384  
H58      H      0.441080000000     0.176380000000     0.095920000000     0.0435794  
H59      H      0.651380000000     0.378110000000     0.150560000000     0.0546214  
H60      H      0.457530000000     0.282990000000     0.069150000000     0.0549383  
H61      H      0.462100000000     0.221920000000     0.157380000000     0.061627   
H62      H      0.631760000000     0.261270000000     0.182220000000     0.0430461  
H63      H      0.641600000000     0.284330000000     0.110140000000     0.0300393  
H64      H      0.591760000000     0.396320000000     0.275410000000     0.188688   
H65      H      0.844790000000     0.313500000000     0.435170000000     0.039328   
H66      H      0.734510000000     0.293660000000     0.402400000000     0.0375505  
H67      H      0.814250000000     0.269750000000     0.540970000000     0.0755528  
H68      H      0.857660000000     0.394950000000     0.422680000000     0.0464067  
H69      H      0.743470000000     0.362580000000     0.438550000000     0.0398477  
H70      H      0.745780000000     0.353630000000     0.546780000000     0.028845   
H71      H      0.715260000000     0.273620000000     0.577850000000     0.0507549  
H72      H      0.814840000000     0.396280000000     0.628280000000     0.183672   
H73      H      0.402550000000     0.814700000000     0.691380000000     0.0464101  
H74      H      0.340100000000     0.709250000000     0.643120000000     0.0473008  
H75      H      0.339570000000     0.917070000000     0.623270000000     0.059828   
H76      H      0.450740000000     0.816800000000     0.634430000000     0.0519878  
H77      H      0.351120000000     0.751610000000     0.576370000000     0.0565572  
H78      H      0.231430000000     0.810350000000     0.633670000000     0.0591914  
H79      H      0.292960000000     0.819850000000     0.687400000000     0.0459461  
H80      H      0.250100000000     0.818560000000     0.485930000000     0.192232   
H81      H      0.874890000000     0.562570000000     0.435640000000     0.0422816  
H82      H      0.833090000000     0.640770000000     0.433270000000     0.0320077  
H83      H      0.819030000000     0.461820000000     0.553910000000     0.0564165  
H84      H      0.937770000000     0.639570000000     0.465420000000     0.0498685  
H85      H      0.853960000000     0.655920000000     0.506560000000     0.0563067  
H86      H      0.712510000000     0.465580000000     0.525070000000     0.0359155  
H87      H      0.762250000000     0.471550000000     0.468920000000     0.0351371  
H88      H      0.796960000000     0.508930000000     0.683720000000     0.204697   
H89      H      0.291610000000     0.447400000000     0.551710000000     0.0360488  
H90      H      0.233460000000     0.457280000000     0.470300000000     0.0471433  
H91      H      0.303700000000     0.551060000000     0.603170000000     0.0683351  
H92      H      0.350190000000     0.466370000000     0.499500000000     0.0603507  
H93      H      0.309380000000     0.522050000000     0.441120000000     0.0579286  
H94      H      0.367120000000     0.640310000000     0.500190000000     0.0509475  
H95      H      0.308980000000     0.645140000000     0.543780000000     0.0495249  
H96      H      0.424890000000     0.660960000000     0.699440000000     0.18214    
H97      H      0.083130000000     0.538610000000     0.772840000000     0.0680039  
H98      H      0.989270000000     0.473400000000     0.836660000000     0.0583895  
H99      H      0.072620000000     0.693480000000     0.747940000000     0.0730415  
H100     H      0.001000000000     0.488510000000     0.737870000000     0.0459795  
H101     H      0.945280000000     0.513950000000     0.810020000000     0.0654786  
H102     H      0.041780000000     0.670760000000     0.854620000000     0.0582254  
H103     H      0.116340000000     0.673650000000     0.832640000000     0.0495681  
H104     H      0.914040000000     0.682470000000     0.773450000000     0.195713   
H105     H      0.114450000000     0.656460000000     0.291420000000     0.0432679  
H106     H      0.006440000000     0.614110000000     0.239040000000     0.0418327  
H107     H      0.145710000000     0.566920000000     0.283500000000     0.0664664  
H108     H      0.051420000000     0.642240000000     0.339600000000     0.042661   
H109     H      0.962680000000     0.548290000000     0.288710000000     0.0417791  
H110     H      0.998590000000     0.455640000000     0.297670000000     0.0489605  
H111     H      0.054020000000     0.458080000000     0.247250000000     0.0488611  
H112     H      0.103420000000     0.403020000000     0.380260000000     0.183639   
H113     H      0.855940000000     0.254720000000     0.079910000000     0.0421805  
H114     H      0.814720000000     0.337710000000     0.069560000000     0.0420976  
H115     H      0.873210000000     0.222350000000     0.987770000000     0.0635441  
H116     H      0.773850000000     0.224000000000     0.103570000000     0.0528485  
H117     H      0.748960000000     0.283630000000     0.021600000000     0.0363314  
H118     H      0.780910000000     0.266800000000     0.926930000000     0.0488366  
H119     H      0.868820000000     0.296500000000     0.915860000000     0.0421974  
H120     H      0.832290000000     0.111390000000     0.882760000000     0.192206   
H121     H      0.274790000000     0.808210000000     0.080830000000     0.0661763  
H122     H      0.194180000000     0.768010000000     0.159230000000     0.039402   
H123     H      0.356600000000     0.741630000000     0.091610000000     0.0644234  
H124     H      0.301640000000     0.868210000000     0.134810000000     0.037505   
H125     H      0.260980000000     0.779630000000     0.207650000000     0.0459973  
H126     H      0.303560000000     0.700450000000     0.209340000000     0.0493373  
H127     H      0.286070000000     0.649620000000     0.152160000000     0.0376996  
H128     H      0.505630000000     0.755410000000     0.153300000000     0.186984   
H129     H      0.813800000000     0.466190000000     0.131380000000     0.0422852  
H130     H      0.792700000000     0.553390000000     0.088640000000     0.0523865  
H131     H      0.843030000000     0.548260000000     0.983080000000     0.0739626  
H132     H      0.749900000000     0.405160000000     0.085360000000     0.0381672  
H133     H      0.716120000000     0.485280000000     0.115080000000     0.0466052  
H134     H      0.711170000000     0.411420000000     0.984840000000     0.0490623  
H135     H      0.727750000000     0.481830000000     0.940470000000     0.0434139  
H136     H      0.813190000000     0.387060000000     0.896810000000     0.187955   
H137     H      0.258330000000     0.567250000000     0.092160000000     0.0557824  
H138     H      0.372560000000     0.621490000000     0.120270000000     0.0498209  
H139     H      0.239040000000     0.460600000000     0.023650000000     0.0634614  
H140     H      0.295540000000     0.644400000000     0.053060000000     0.0596961  
H141     H      0.402250000000     0.651770000000     0.052670000000     0.0515919  
H142     H      0.381060000000     0.552930000000     0.980890000000     0.06021    
H143     H      0.348140000000     0.473600000000     0.011990000000     0.058525   
H144     H      0.211420000000     0.401090000000     0.887470000000     0.190843   
H145     H      0.890730000000     0.813040000000     0.568190000000     0.0500488  
H146     H      0.780640000000     0.768490000000     0.521960000000    -0.0150095  
H147     H      0.886090000000     0.851990000000     0.672760000000     0.0780751  
H148     H      0.892220000000     0.866950000000     0.511620000000     0.0593351  
H149     H      0.779820000000     0.844320000000     0.527550000000     0.0490405  
H150     H      0.771350000000     0.878500000000     0.628870000000     0.0493575  
H151     H      0.769900000000     0.824430000000     0.685620000000     0.0399907  
H152     H      0.913380000000     0.974790000000     0.766260000000     0.185017   
H153     H      0.279000000000     0.313720000000     0.535630000000     0.0466042  
H154     H      0.298930000000     0.239170000000     0.602410000000    -0.0159369  
H155     H      0.312600000000     0.309420000000     0.440790000000     0.0678402  
H156     H      0.341350000000     0.358380000000     0.589140000000     0.0474123  
H157     H      0.385690000000     0.279560000000     0.585940000000     0.0472315  
H158     H      0.415910000000     0.269060000000     0.487550000000     0.0455309  
H159     H      0.348720000000     0.225320000000     0.436560000000     0.0434341  
H160     H      0.503520000000     0.387300000000     0.380230000000     0.182491   
H161     H      0.958260000000     0.224320000000     0.520250000000     0.0464306  
H162     H      0.838480000000     0.177130000000     0.512330000000     0.0285228  
H163     H      0.843960000000     0.094860000000     0.456950000000     0.0623994  
H164     H      0.955050000000     0.181140000000     0.584230000000     0.0556593  
H165     H      0.859220000000     0.191380000000     0.585420000000     0.0620346  
H166     H      0.837260000000     0.016720000000     0.566170000000     0.0694431  
H167     H      0.767400000000     0.999490000000     0.517550000000     0.0519233  
H168     H      0.905110000000     0.012610000000     0.379430000000     0.192756   
H169     H      0.339460000000     0.077210000000     0.702200000000     0.0506322  
H170     H      0.424540000000     0.161340000000     0.643150000000     0.0550611  
H171     H      0.292600000000     0.978310000000     0.656880000000     0.060227   
H172     H      0.314760000000     0.137190000000     0.685630000000     0.0500239  
H173     H      0.362250000000     0.158870000000     0.593200000000     0.0524453  
H174     H      0.284770000000     0.031420000000     0.537990000000     0.0708974  
H175     H      0.318040000000     0.978230000000     0.557340000000     0.0615416  
H176     H      0.154230000000     0.840640000000     0.578860000000     0.208669   
H177     H      0.981980000000     0.810290000000     0.442000000000     0.0371182  
H178     H      0.977040000000     0.738670000000     0.517770000000     0.0463401  
H179     H      0.092730000000     0.873110000000     0.382970000000     0.0543867  
H180     H      0.983300000000     0.850030000000     0.503470000000     0.0539541  
H181     H      0.040500000000     0.806280000000     0.558870000000     0.0672458  
H182     H      0.146420000000     0.797430000000     0.428270000000     0.0471182  
H183     H      0.059860000000     0.766990000000     0.407010000000     0.0319249  
H184     H      0.281990000000     0.951880000000     0.463610000000     0.19664    
H185     H      0.190880000000     0.438270000000     0.578970000000     0.0465163  
H186     H      0.218030000000     0.375020000000     0.646270000000     0.0372408  
H187     H      0.147670000000     0.391710000000     0.704110000000     0.0668723  
H188     H      0.122420000000     0.364350000000     0.546750000000     0.0544     
H189     H      0.207420000000     0.339940000000     0.579920000000     0.0391857  
H190     H      0.029750000000     0.254650000000     0.668540000000     0.0562217  
H191     H      0.098580000000     0.274490000000     0.719460000000     0.0380185  
H192     H      0.943940000000     0.317740000000     0.728600000000     0.199665   
H193     H      0.045890000000     0.138750000000     0.826270000000     0.046923   
H194     H      0.025080000000     0.062640000000     0.753420000000     0.0306073  
H195     H      0.209430000000     0.218460000000     0.872880000000     0.075335   
H196     H      0.012120000000     0.056910000000     0.854900000000     0.0595135  
H197     H      0.073240000000     0.030050000000     0.791260000000     0.0629489  
H198     H      0.228170000000     0.216920000000     0.768800000000     0.0490123  
H199     H      0.154630000000     0.220690000000     0.784150000000     0.0381779  
H200     H      0.332860000000     0.170460000000     0.854930000000     0.180248   
H201     H      0.981300000000     0.999870000000     0.291400000000     0.0463535  
H202     H      0.010960000000     0.917750000000     0.262110000000     0.0463381  
H203     H      0.088650000000     0.114610000000     0.284350000000     0.0694141  
H204     H      0.976910000000     0.946840000000     0.349030000000     0.0523744  
H205     H      0.073640000000     0.939960000000     0.318200000000     0.0479864  
H206     H      0.179150000000     0.054990000000     0.317860000000     0.0687154  
H207     H      0.190500000000     0.109080000000     0.259190000000     0.057834   
H208     H      0.262140000000     0.220650000000     0.375000000000     0.18606    
H209     H      0.890500000000     0.819800000000     0.067670000000     0.0636934  
H210     H      0.806180000000     0.711880000000     0.048840000000     0.042065   
H211     H      0.825100000000     0.904880000000     0.045320000000     0.0748115  
H212     H      0.909610000000     0.802570000000     0.001160000000     0.0645244  
H213     H      0.791590000000     0.730090000000     0.977680000000     0.0313739  
H214     H      0.737470000000     0.800290000000     0.958850000000     0.0440323  
H215     H      0.712080000000     0.827330000000     0.017130000000     0.0351254  
H216     H      0.799720000000     0.005990000000     0.945180000000     0.19967    
H217     H      0.249000000000     0.355100000000     0.057070000000     0.0404338  
H218     H      0.241180000000     0.309930000000     0.150440000000     0.0442141  
H219     H      0.253440000000     0.273770000000     0.995220000000     0.0638406  
H220     H      0.320690000000     0.412000000000     0.095020000000     0.050567   
H221     H      0.327290000000     0.327800000000     0.152390000000     0.0486747  
H222     H      0.353250000000     0.259350000000     0.079760000000     0.0465733  
H223     H      0.281850000000     0.195220000000     0.043840000000    -0.0145976  
H224     H      0.421670000000     0.276190000000     0.941920000000     0.179764   
H225     H      0.745920000000     0.921290000000     0.066200000000     0.0571441  
H226     H      0.793250000000     0.867970000000     0.130670000000     0.0484911  
H227     H      0.796840000000     0.077270000000     0.158660000000     0.0669295  
H228     H      0.686090000000     0.878530000000     0.118180000000     0.0454906  
H229     H      0.770820000000     0.892910000000     0.189880000000     0.0560154  
H230     H      0.881400000000     0.043080000000     0.212030000000     0.0393767  
H231     H      0.890390000000     0.072990000000     0.142080000000     0.0556232  
H232     H      0.746820000000     0.041340000000     0.295580000000     0.190906   
H233     H      0.394580000000     0.158910000000     0.931550000000     0.0435161  
H234     H      0.348670000000     0.156770000000     0.022780000000     0.0456825  
H235     H      0.343770000000     0.053580000000     0.886650000000     0.0638823  
H236     H      0.456840000000     0.179690000000     0.987280000000     0.0441625  
H237     H      0.366010000000     0.093100000000     0.048950000000     0.044238   
H238     H      0.287900000000     0.970830000000     0.993230000000     0.0528829  
H239     H      0.242690000000     0.978440000000     0.931930000000     0.062374   
H240     H      0.329990000000     0.876810000000     0.915350000000     0.210136   
H241     H      0.991950000000     0.725000000000     0.068960000000     0.043191   
H242     H      0.093860000000     0.737030000000     0.116790000000     0.0358968  
H243     H      0.020000000000     0.758460000000     0.972620000000     0.0702742  
H244     H      0.020240000000     0.786190000000     0.121690000000     0.0397647  
H245     H      0.139960000000     0.824460000000     0.107070000000     0.0423429  
H246     H      0.166290000000     0.869450000000     0.000830000000     0.0582523  
H247     H      0.141150000000     0.807700000000     0.948920000000     0.0514556  
H248     H      0.099520000000     0.930890000000     0.884130000000     0.189067   
H249     H      0.105160000000     0.323390000000     0.980830000000     0.0593087  
H250     H      0.168630000000     0.378000000000     0.071700000000     0.0352951  
H251     H      0.986550000000     0.253940000000     0.994040000000     0.0625843  
H252     H      0.163540000000     0.296860000000     0.000820000000     0.0533173  
H253     H      0.139600000000     0.298440000000     0.102940000000     0.0488809  
H254     H      0.007100000000     0.224950000000     0.117770000000     0.0361339  
H255     H      0.956790000000     0.259490000000     0.090270000000     0.0243643  
H256     H      0.875520000000     0.153680000000     0.081370000000     0.161311   
N1       N      0.559480000000     0.545060000000     0.738340000000    -0.158013   
N2       N      0.572040000000     0.534990000000     0.854580000000    -0.180758   
N3       N      0.588440000000     0.603230000000     0.242180000000    -0.176573   
N4       N      0.606240000000     0.613670000000     0.358320000000    -0.178658   
N5       N      0.586270000000     0.899090000000     0.463580000000    -0.161998   
N6       N      0.591400000000     0.783760000000     0.489140000000    -0.178279   
N7       N      0.599900000000     0.388630000000     0.587290000000    -0.162215   
N8       N      0.580500000000     0.258300000000     0.604500000000    -0.172883   
N9       N      0.611500000000     0.067370000000     0.755630000000    -0.162231   
N10      N      0.593720000000     0.068950000000     0.872630000000    -0.169802   
N11      N      0.546730000000     0.035430000000     0.366300000000    -0.157329   
N12      N      0.531920000000     0.047500000000     0.249710000000    -0.177156   
N13      N      0.528820000000     0.817540000000     0.006420000000    -0.157343   
N14      N      0.537310000000     0.718170000000     0.950940000000    -0.170062   
N15      N      0.552600000000     0.340880000000     0.113160000000    -0.15662    
N16      N      0.541800000000     0.210270000000     0.129800000000    -0.168992   
N17      N      0.860120000000     0.366620000000     0.508670000000    -0.167758   
N18      N      0.716270000000     0.277780000000     0.489250000000    -0.1766     
N19      N      0.403730000000     0.876350000000     0.623220000000    -0.169117   
N20      N      0.277470000000     0.750640000000     0.626670000000    -0.175805   
N21      N      0.886770000000     0.557390000000     0.523730000000    -0.163972   
N22      N      0.768610000000     0.561940000000     0.486500000000    -0.178911   
N23      N      0.375200000000     0.544440000000     0.556790000000    -0.166462   
N24      N      0.269110000000     0.554840000000     0.499570000000    -0.183854   
N25      N      0.039170000000     0.592570000000     0.734440000000    -0.1576     
N26      N      0.037680000000     0.577990000000     0.854270000000    -0.175299   
N27      N      0.086660000000     0.572590000000     0.344430000000    -0.177587   
N28      N      0.026030000000     0.533480000000     0.238220000000    -0.180046   
N29      N      0.779130000000     0.188070000000     0.023060000000    -0.160768   
N30      N      0.848410000000     0.323550000000     0.992750000000    -0.182199   
N31      N      0.359950000000     0.820440000000     0.131740000000    -0.1585     
N32      N      0.232540000000     0.702410000000     0.151150000000    -0.174205   
N33      N      0.837370000000     0.478270000000     0.045090000000    -0.163141   
N34      N      0.719830000000     0.492480000000     0.026720000000    -0.178221   
N35      N      0.260920000000     0.557970000000     0.006220000000    -0.158533   
N36      N      0.371680000000     0.551370000000     0.067670000000    -0.180985   
N37      N      0.897870000000     0.901070000000     0.594490000000    -0.163758   
N38      N      0.770260000000     0.793260000000     0.604330000000    -0.194655   
N39      N      0.379130000000     0.361450000000     0.508710000000    -0.152541   
N40      N      0.318020000000     0.225330000000     0.518630000000    -0.187575   
N41      N      0.931640000000     0.124640000000     0.509970000000    -0.160274   
N42      N      0.808500000000     0.089910000000     0.561750000000    -0.180203   
N43      N      0.257750000000     0.046040000000     0.641350000000    -0.161533   
N44      N      0.374100000000     0.075300000000     0.590520000000    -0.160188   
N45      N      0.079750000000     0.890150000000     0.464910000000    -0.141244   
N46      N      0.078750000000     0.777770000000     0.493790000000    -0.162121   
N47      N      0.101670000000     0.388580000000     0.624440000000    -0.169724   
N48      N      0.124510000000     0.285140000000     0.634990000000    -0.18219    
N49      N      0.119390000000     0.123990000000     0.872200000000    -0.166131   
N50      N      0.132550000000     0.126990000000     0.757170000000    -0.181967   
N51      N      0.062730000000     0.047010000000     0.351930000000    -0.141497   
N52      N      0.100950000000     0.013160000000     0.254550000000    -0.175248   
N53      N      0.876510000000     0.873440000000     0.999730000000    -0.160074   
N54      N      0.752170000000     0.764250000000     0.036420000000    -0.183744   
N55      N      0.335740000000     0.356820000000     0.033770000000    -0.168527   
N56      N      0.259840000000     0.246280000000     0.103170000000    -0.186582   
N57      N      0.740310000000     0.983230000000     0.122210000000    -0.155217   
N58      N      0.855920000000     0.970480000000     0.151310000000    -0.159302   
N59      N      0.413850000000     0.081570000000     0.955520000000    -0.164664   
N60      N      0.288490000000     0.061070000000     0.986540000000    -0.179351   
N61      N      0.037980000000     0.823410000000     0.038100000000    -0.165839   
N62      N      0.126630000000     0.772190000000     0.033300000000    -0.163911   
N63      N      0.060020000000     0.226650000000     0.016450000000    -0.160671   
N64      N      0.063500000000     0.322860000000     0.085350000000    -0.184209   
O1       O      0.030050000000     0.128260000000     0.059820000000    -0.439428   
O2       O      0.988260000000     0.927210000000     0.983340000000    -0.448621   
O3       O      0.167380000000     0.127460000000     0.958540000000    -0.45519    
O4       O      0.921890000000     0.923850000000     0.132020000000    -0.389146   
O5       O      0.065910000000     0.045550000000     0.939140000000    -0.458398   
O6       O      0.969030000000     0.031530000000     0.132790000000    -0.473825   
O7       O      0.953200000000     0.975620000000     0.031830000000    -0.417711   
O8       O      0.131280000000     0.182850000000     0.027280000000    -0.416004   
O9       O      0.095360000000     0.077210000000     0.183880000000    -0.453753   
O10      O      0.176890000000     0.028720000000     0.968850000000    -0.43269    
O11      O      0.197100000000     0.135580000000     0.112320000000    -0.453545   
O12      O      0.010380000000     0.893790000000     0.078650000000    -0.383683   
O13      O      0.100550000000     0.933640000000     0.030170000000    -0.465138   
O14      O      0.149840000000     0.188380000000     0.125810000000    -0.396162   
O15      O      0.052970000000     0.973280000000     0.167470000000    -0.416892   
O16      O      0.226560000000     0.082620000000     0.043170000000    -0.441231   
O17      O      0.089850000000     0.044210000000     0.059720000000    -0.531333   
O18      O      0.115580000000     0.085910000000     0.439180000000    -0.39751    
O19      O      0.074210000000     0.172260000000     0.642450000000    -0.450541   
O20      O      0.017580000000     0.105860000000     0.492330000000    -0.377943   
O21      O      0.206380000000     0.189230000000     0.518770000000    -0.470124   
O22      O      0.978300000000     0.087750000000     0.576960000000    -0.451254   
O23      O      0.235610000000     0.120570000000     0.503360000000    -0.371701   
O24      O      0.148890000000     0.225430000000     0.579950000000    -0.474234   
O25      O      0.008060000000     0.007950000000     0.434010000000    -0.375608   
O26      O      0.169550000000     0.024030000000     0.578190000000    -0.379523   
O27      O      0.999220000000     0.988450000000     0.620450000000    -0.460271   
O28      O      0.060370000000     0.962770000000     0.510060000000    -0.431624   
O29      O      0.178410000000     0.170190000000     0.673270000000    -0.45109    
O30      O      0.098070000000     0.068740000000     0.678640000000    -0.463002   
O31      O      0.156510000000     0.002220000000     0.469270000000    -0.354978   
O32      O      0.232090000000     0.124330000000     0.610750000000    -0.458284   
O33      O      0.963710000000     0.982160000000     0.533960000000    -0.398372   
O34      O      0.104310000000     0.093510000000     0.568130000000    -0.592924   
O35      O      0.952660000000     0.408430000000     0.966220000000    -0.44684    
O36      O      0.062650000000     0.661220000000     0.019190000000    -0.453574   
O37      O      0.920130000000     0.468060000000     0.097270000000    -0.416867   
O38      O      0.082090000000     0.612030000000     0.943880000000    -0.387862   
O39      O      0.949580000000     0.552770000000     0.040240000000    -0.413604   
O40      O      0.049330000000     0.512180000000     0.920900000000    -0.489173   
O41      O      0.172830000000     0.707630000000     0.013050000000    -0.367236   
O42      O      0.935430000000     0.382240000000     0.053970000000    -0.495428   
O43      O      0.146940000000     0.497000000000     0.983470000000    -0.449293   
O44      O      0.999740000000     0.560070000000     0.150920000000    -0.416583   
O45      O      0.054940000000     0.411470000000     0.109700000000    -0.443226   
O46      O      0.176960000000     0.618350000000     0.088670000000    -0.415406   
O47      O      0.119890000000     0.655330000000     0.121490000000    -0.436061   
O48      O      0.048450000000     0.389040000000     0.022130000000    -0.48309    
O49      O      0.193290000000     0.603920000000     0.991610000000    -0.404123   
O50      O      0.050710000000     0.504570000000     0.158150000000    -0.463514   
O51      O      0.053250000000     0.520080000000     0.042320000000    -0.522106   
O52      O      0.967260000000     0.447210000000     0.482640000000    -0.445153   
O53      O      0.076270000000     0.717610000000     0.571370000000    -0.413581   
O54      O      0.949510000000     0.532450000000     0.589980000000    -0.412076   
O55      O      0.101950000000     0.619480000000     0.428620000000    -0.460363   
O56      O      0.000490000000     0.606870000000     0.525770000000    -0.465768   
O57      O      0.076510000000     0.518180000000     0.426880000000    -0.492482   
O58      O      0.121580000000     0.707600000000     0.498110000000    -0.468848   
O59      O      0.950000000000     0.426800000000     0.570090000000    -0.4413     
O60      O      0.153940000000     0.496980000000     0.501160000000    -0.473899   
O61      O      0.033960000000     0.627570000000     0.642660000000    -0.356469   
O62      O      0.069450000000     0.464650000000     0.633280000000    -0.444055   
O63      O      0.223490000000     0.685110000000     0.552790000000    -0.456661   
O64      O      0.161930000000     0.686660000000     0.614810000000    -0.425166   
O65      O      0.050010000000     0.416240000000     0.554260000000    -0.473985   
O66      O      0.205450000000     0.603310000000     0.484500000000    -0.4543     
O67      O      0.075050000000     0.565880000000     0.660060000000    -0.455178   
O68      O      0.082970000000     0.560380000000     0.547430000000    -0.523332   
O69      O      0.436560000000     0.012540000000     0.010200000000    -0.41618    
O70      O      0.523400000000     0.910250000000     0.004750000000    -0.413406   
O71      O      0.610760000000     0.116740000000     0.958040000000    -0.412557   
O72      O      0.473790000000     0.897900000000     0.143320000000    -0.418427   
O73      O      0.548930000000     0.011860000000     0.951590000000    -0.43883    
O74      O      0.414120000000     0.914640000000     0.077900000000    -0.42681    
O75      O      0.560120000000     0.887190000000     0.081600000000    -0.394378   
O76      O      0.513590000000     0.117290000000     0.006750000000    -0.436221   
O77      O      0.470640000000     0.001180000000     0.168220000000    -0.430054   
O78      O      0.688760000000     0.084070000000     0.996420000000    -0.385677   
O79      O      0.591800000000     0.149560000000     0.111410000000    -0.421105   
O80      O      0.664560000000     0.018510000000     0.125610000000    -0.420644   
O81      O      0.663130000000     0.972790000000     0.050490000000    -0.41013    
O82      O      0.483260000000     0.100680000000     0.101850000000    -0.414479   
O83      O      0.575490000000     0.022880000000     0.179160000000    -0.442556   
O84      O      0.679090000000     0.134090000000     0.064810000000    -0.448036   
O85      O      0.554900000000     0.021050000000     0.065040000000    -0.502181   
O86      O      0.475840000000     0.094830000000     0.626210000000    -0.430579   
O87      O      0.658180000000     0.005340000000     0.495730000000    -0.422258   
O88      O      0.516810000000     0.039570000000     0.454830000000    -0.400898   
O89      O      0.518710000000     0.938720000000     0.633700000000    -0.466598   
O90      O      0.623920000000     0.079970000000     0.440430000000    -0.430749   
O91      O      0.466100000000     0.984930000000     0.593160000000    -0.403106   
O92      O      0.573460000000     0.935930000000     0.545020000000    -0.459571   
O93      O      0.447900000000     0.061840000000     0.538290000000    -0.388129   
O94      O      0.561590000000     0.067140000000     0.671950000000    -0.443343   
O95      O      0.694890000000     0.178620000000     0.522110000000    -0.479866   
O96      O      0.556430000000     0.180500000000     0.541960000000    -0.47906    
O97      O      0.702250000000     0.014840000000     0.591980000000    -0.419848   
O98      O      0.727640000000     0.113200000000     0.578210000000    -0.446358   
O99      O      0.606130000000     0.174080000000     0.616840000000    -0.393355   
O100     O      0.637030000000     0.035050000000     0.676460000000    -0.431083   
O101     O      0.622720000000     0.178540000000     0.461300000000    -0.375258   
O102     O      0.595680000000     0.065550000000     0.560390000000    -0.572173   
O103     O      0.435880000000     0.437000000000     0.999740000000    -0.430611   
O104     O      0.512520000000     0.639500000000     0.017150000000    -0.4551     
O105     O      0.432180000000     0.499800000000     0.093790000000    -0.460765   
O106     O      0.630640000000     0.581970000000     0.935870000000    -0.443471   
O107     O      0.473100000000     0.598800000000     0.117650000000    -0.452366   
O108     O      0.523120000000     0.519770000000     0.936820000000    -0.449412   
O109     O      0.606060000000     0.672410000000     0.974540000000    -0.391952   
O110     O      0.436080000000     0.396960000000     0.081420000000    -0.47392    
O111     O      0.624340000000     0.486540000000     0.982990000000    -0.415855   
O112     O      0.603050000000     0.646590000000     0.154150000000    -0.453468   
O113     O      0.564200000000     0.443230000000     0.132000000000    -0.391133   
O114     O      0.686290000000     0.661820000000     0.075330000000    -0.444002   
O115     O      0.643150000000     0.720450000000     0.062500000000    -0.423428   
O116     O      0.534960000000     0.405040000000     0.047770000000    -0.427985   
O117     O      0.688770000000     0.568530000000     0.037750000000    -0.437391   
O118     O      0.546090000000     0.541240000000     0.164860000000    -0.505633   
O119     O      0.559540000000     0.548230000000     0.051320000000    -0.488097   
O120     O      0.477320000000     0.456160000000     0.487700000000    -0.413929   
O121     O      0.550940000000     0.687780000000     0.539790000000    -0.458405   
O122     O      0.463500000000     0.529810000000     0.539640000000    -0.418709   
O123     O      0.664080000000     0.653960000000     0.441150000000    -0.440942   
O124     O      0.477210000000     0.590860000000     0.606980000000    -0.447223   
O125     O      0.558230000000     0.576160000000     0.440680000000    -0.433836   
O126     O      0.652490000000     0.730850000000     0.508450000000    -0.441417   
O127     O      0.461960000000     0.421160000000     0.575010000000    -0.407224   
O128     O      0.666010000000     0.551580000000     0.462840000000    -0.429484   
O129     O      0.593820000000     0.617230000000     0.665590000000    -0.470546   
O130     O      0.593940000000     0.481190000000     0.606480000000    -0.383567   
O131     O      0.715880000000     0.685020000000     0.593800000000    -0.461617   
O132     O      0.659210000000     0.728610000000     0.612500000000    -0.460751   
O133     O      0.588810000000     0.455770000000     0.522320000000    -0.469196   
O134     O      0.729090000000     0.618840000000     0.527550000000    -0.455179   
O135     O      0.515750000000     0.515380000000     0.648530000000    -0.379637   
O136     O      0.598490000000     0.592050000000     0.551680000000    -0.557663   
O137     O      0.451600000000     0.401040000000     0.725880000000    -0.225692   
O138     O      0.383030000000     0.443000000000     0.720110000000    -0.328295   
O139     O      0.424460000000     0.477750000000     0.237500000000    -0.244365   
O140     O      0.499680000000     0.444120000000     0.251910000000    -0.335481   
O141     O      0.689910000000     0.998680000000     0.397220000000    -0.248868   
O142     O      0.740430000000     0.940950000000     0.384940000000    -0.339948   
O143     O      0.593650000000     0.420710000000     0.713820000000    -0.223383   
O144     O      0.520480000000     0.313900000000     0.699420000000    -0.340765   
O145     O      0.739240000000     0.100440000000     0.791820000000    -0.22106    
O146     O      0.713460000000     0.002270000000     0.829910000000    -0.342586   
O147     O      0.379350000000     0.939910000000     0.392780000000    -0.228484   
O148     O      0.417420000000     0.048110000000     0.384720000000    -0.334302   
O149     O      0.388800000000     0.799700000000     0.931830000000    -0.233612   
O150     O      0.485950000000     0.839270000000     0.889350000000    -0.339776   
O151     O      0.541930000000     0.283940000000     0.237830000000    -0.242287   
O152     O      0.603570000000     0.393910000000     0.238090000000    -0.328224   
O153     O      0.869690000000     0.299620000000     0.632880000000    -0.219813   
O154     O      0.836610000000     0.372220000000     0.642660000000    -0.329377   
O155     O      0.367970000000     0.899190000000     0.515280000000    -0.213057   
O156     O      0.259520000000     0.824240000000     0.525650000000    -0.326576   
O157     O      0.821210000000     0.588750000000     0.605340000000    -0.214741   
O158     O      0.802150000000     0.495030000000     0.648130000000    -0.346229   
O159     O      0.440880000000     0.692500000000     0.599670000000    -0.262093   
O160     O      0.394100000000     0.627410000000     0.673410000000    -0.332624   
O161     O      0.918650000000     0.586930000000     0.739720000000    -0.23046    
O162     O      0.958040000000     0.685690000000     0.776790000000    -0.333113   
O163     O      0.190740000000     0.518400000000     0.357590000000    -0.244039   
O164     O      0.087480000000     0.428810000000     0.358600000000    -0.339766   
O165     O      0.744760000000     0.138770000000     0.903420000000    -0.230391   
O166     O      0.843200000000     0.141060000000     0.913140000000    -0.330024   
O167     O      0.435150000000     0.777020000000     0.213220000000    -0.235459   
O168     O      0.464460000000     0.751570000000     0.135790000000    -0.345247   
O169     O      0.895100000000     0.502280000000     0.923560000000    -0.230638   
O170     O      0.799950000000     0.404280000000     0.926200000000    -0.341894   
O171     O      0.276000000000     0.522640000000     0.899290000000    -0.232823   
O172     O      0.221930000000     0.416260000000     0.925420000000    -0.344659   
O173     O      0.886810000000     0.991270000000     0.667380000000    -0.256637   
O174     O      0.905000000000     0.940150000000     0.741220000000    -0.336124   
O175     O      0.396750000000     0.390660000000     0.375420000000    -0.234385   
O176     O      0.472190000000     0.362740000000     0.409100000000    -0.342098   
O177     O      0.850800000000     0.965870000000     0.469060000000    -0.231799   
O178     O      0.901970000000     0.042910000000     0.403230000000    -0.326209   
O179     O      0.152310000000     0.913300000000     0.646390000000    -0.21778    
O180     O      0.192260000000     0.884780000000     0.577960000000    -0.334499   
O181     O      0.213140000000     0.959220000000     0.383620000000    -0.23607    
O182     O      0.233430000000     0.922780000000     0.465440000000    -0.321164   
O183     O      0.062280000000     0.405100000000     0.750410000000    -0.24174    
O184     O      0.978070000000     0.317830000000     0.706810000000    -0.327489   
O185     O      0.211100000000     0.084930000000     0.849540000000    -0.233863   
O186     O      0.301290000000     0.186340000000     0.855810000000    -0.333763   
O187     O      0.144820000000     0.199310000000     0.361440000000    -0.224904   
O188     O      0.229780000000     0.179130000000     0.357990000000    -0.329769   
O189     O      0.824010000000     0.922310000000     0.911510000000    -0.234797   
O190     O      0.802940000000     0.976570000000     0.973220000000    -0.326685   
O191     O      0.332920000000     0.304840000000     0.916740000000    -0.23489    
O192     O      0.394790000000     0.274530000000     0.972000000000    -0.353893   
O193     O      0.714130000000     0.947260000000     0.233900000000    -0.249      
O194     O      0.768320000000     0.052240000000     0.260320000000    -0.345152   
O195     O      0.402320000000     0.986160000000     0.870770000000    -0.237313   
O196     O      0.324920000000     0.912730000000     0.927470000000    -0.331606   
O197     O      0.992240000000     0.834430000000     0.914480000000    -0.230384   
O198     O      0.103700000000     0.904810000000     0.914910000000    -0.345367   
O199     O      0.931540000000     0.119720000000     0.982210000000    -0.193966   
O200     O      0.879110000000     0.129400000000     0.051880000000    -0.314862   


