data_structure

_audit_creation_method RASPA-1.0
_audit_creation_date 2023-6-4
_audit_author_name 'Poobodin Mano'

_cell_length_a    32.3054
_cell_length_b    32.3545
_cell_length_c    33.0704
_cell_angle_alpha 87.1348
_cell_angle_beta  93.8215
_cell_angle_gamma 120.436
_cell_volume      29731.1

_symmetry_cell_setting          triclinic
_symmetry_space_group_name_Hall 'P 1'
_symmetry_space_group_name_H-M  'P 1'
_symmetry_Int_Tables_number     1

_symmetry_equiv_pos_as_xyz 'x,y,z'

loop_
_atom_site_label
_atom_site_type_symbol
_atom_site_fract_x
_atom_site_fract_y
_atom_site_fract_z
_atom_site_charge
C1       C      0.078110000000     0.160990000000     0.019100000000     0.432962   
C2       C      0.920970000000     0.926970000000     0.009010000000     0.345115   
C3       C      0.014640000000     0.028890000000     0.919570000000     0.442924   
C4       C      0.973300000000     0.073110000000     0.040850000000     0.400057   
C5       C      0.007620000000     0.014210000000     0.116900000000     0.388296   
C6       C      0.126940000000     0.038600000000     0.958510000000     0.473915   
C7       C      0.159470000000     0.117340000000     0.042820000000     0.407626   
C8       C      0.027890000000     0.939270000000     0.063090000000     0.439847   
C9       C      0.974980000000     0.000070000000     0.416460000000     0.416583   
C10      C      0.027640000000     0.125500000000     0.555820000000     0.402189   
C11      C      0.898770000000     0.994440000000     0.474470000000     0.402494   
C12      C      0.103160000000     0.133390000000     0.501400000000     0.41263    
C13      C      0.114640000000     0.028320000000     0.523310000000     0.409596   
C14      C      0.909320000000     0.933590000000     0.563170000000     0.400676   
C15      C      0.035140000000     0.948080000000     0.475080000000     0.416701   
C16      C      0.991290000000     0.018280000000     0.616930000000     0.41125    
C17      C      0.940600000000     0.454350000000     0.022110000000     0.409384   
C18      C      0.056880000000     0.662390000000     0.016170000000     0.396453   
C19      C      0.939920000000     0.519130000000     0.086810000000     0.4237     
C20      C      0.065430000000     0.594830000000     0.947920000000     0.402801   
C21      C      0.129360000000     0.544350000000     0.004840000000     0.423148   
C22      C      0.048980000000     0.558600000000     0.148800000000     0.409041   
C23      C      0.050120000000     0.453310000000     0.042380000000     0.419039   
C24      C      0.128470000000     0.656970000000     0.097470000000     0.399196   
C25      C      0.889870000000     0.435400000000     0.519550000000     0.41833    
C26      C      0.004670000000     0.637720000000     0.504970000000     0.482392   
C27      C      0.905220000000     0.533270000000     0.585670000000     0.432211   
C28      C      0.007540000000     0.505820000000     0.449420000000     0.399682   
C29      C      0.085250000000     0.523520000000     0.538940000000     0.417264   
C30      C      0.009920000000     0.538380000000     0.650440000000     0.440346   
C31      C      0.977360000000     0.401390000000     0.558560000000     0.351974   
C32      C      0.099860000000     0.638190000000     0.568710000000     0.449632   
C33      C      0.444570000000     0.064600000000     0.016780000000     0.350225   
C34      C      0.578700000000     0.959000000000     0.008780000000     0.421017   
C35      C      0.557860000000     0.034100000000     0.933700000000     0.404532   
C36      C      0.449910000000     0.954680000000     0.054410000000     0.43922    
C37      C      0.529280000000     0.033630000000     0.131030000000     0.429933   
C38      C      0.637420000000     0.149160000000     0.978590000000     0.418219   
C39      C      0.560640000000     0.150700000000     0.047740000000     0.419161   
C40      C      0.657130000000     0.048470000000     0.081070000000     0.4286     
C41      C      0.397180000000     0.987910000000     0.521280000000     0.419172   
C42      C      0.529670000000     0.928970000000     0.485130000000     0.448752   
C43      C      0.505630000000     0.034530000000     0.430900000000     0.430526   
C44      C      0.427960000000     0.921620000000     0.592450000000     0.422539   
C45      C      0.542250000000     0.018340000000     0.630090000000     0.407538   
C46      C      0.586280000000     0.125180000000     0.503130000000     0.447995   
C47      C      0.474470000000     0.110260000000     0.540120000000     0.350291   
C48      C      0.618100000000     0.017220000000     0.550950000000     0.427179   
C49      C      0.466320000000     0.407770000000     0.993880000000     0.398895   
C50      C      0.552700000000     0.638080000000     0.007030000000     0.419064   
C51      C      0.422570000000     0.516990000000     0.043730000000     0.450987   
C52      C      0.555460000000     0.535270000000     0.937930000000     0.430091   
C53      C      0.633290000000     0.501200000000     0.002950000000     0.358522   
C54      C      0.495840000000     0.505950000000     0.130050000000     0.438755   
C55      C      0.541140000000     0.439340000000     0.082440000000     0.402983   
C56      C      0.627500000000     0.620960000000     0.080340000000     0.419898   
C57      C      0.394280000000     0.446540000000     0.511480000000     0.41425    
C58      C      0.528530000000     0.630010000000     0.483690000000     0.404953   
C59      C      0.399470000000     0.530770000000     0.577370000000     0.445337   
C60      C      0.499540000000     0.500670000000     0.433650000000     0.320127   
C61      C      0.600410000000     0.532820000000     0.498780000000     0.306991   
C62      C      0.506240000000     0.556510000000     0.639110000000     0.442576   
C63      C      0.484860000000     0.422340000000     0.556210000000     0.426987   
C64      C      0.596730000000     0.623360000000     0.570370000000     0.410613   
C65      C      0.506850000000     0.584560000000     0.748480000000    -0.0746662  
C66      C      0.531340000000     0.562390000000     0.766930000000     0.027864   
C67      C      0.553870000000     0.546030000000     0.742720000000    -0.0747884  
C68      C      0.548950000000     0.548290000000     0.700780000000     0.0423777  
C69      C      0.521130000000     0.566670000000     0.682130000000    -0.142942   
C70      C      0.501670000000     0.586620000000     0.706120000000     0.0401077  
C71      C      0.532340000000     0.554310000000     0.811180000000     0.0259241  
C72      C      0.547360000000     0.592310000000     0.837640000000    -0.0718412  
C73      C      0.553410000000     0.585520000000     0.879110000000     0.0384737  
C74      C      0.543990000000     0.540460000000     0.894820000000    -0.131938   
C75      C      0.526410000000     0.501790000000     0.868580000000     0.03879    
C76      C      0.520920000000     0.508760000000     0.827020000000    -0.0713257  
C77      C      0.447270000000     0.462670000000     0.234830000000    -0.0753673  
C78      C      0.486450000000     0.495720000000     0.259360000000     0.0313863  
C79      C      0.529210000000     0.528880000000     0.241240000000    -0.0757697  
C80      C      0.532350000000     0.530460000000     0.199460000000     0.0409441  
C81      C      0.492700000000     0.499040000000     0.174500000000    -0.139368   
C82      C      0.450320000000     0.464400000000     0.192580000000     0.0394623  
C83      C      0.483880000000     0.496080000000     0.303860000000     0.0161096  
C84      C      0.502560000000     0.539840000000     0.323820000000    -0.0575161  
C85      C      0.506050000000     0.541250000000     0.366080000000     0.0136007  
C86      C      0.491080000000     0.498910000000     0.389180000000    -0.0752417  
C87      C      0.470230000000     0.454860000000     0.369210000000     0.0129095  
C88      C      0.466530000000     0.453450000000     0.326920000000    -0.0579555  
C89      C      0.502760000000     0.815850000000     0.434000000000    -0.0746839  
C90      C      0.541360000000     0.810010000000     0.449480000000     0.0279505  
C91      C      0.578450000000     0.847000000000     0.472940000000    -0.0747645  
C92      C      0.575510000000     0.886860000000     0.482630000000     0.0413974  
C93      C      0.534900000000     0.890050000000     0.470150000000    -0.145118   
C94      C      0.499010000000     0.854940000000     0.445080000000     0.0420362  
C95      C      0.539420000000     0.763050000000     0.446750000000     0.0220146  
C96      C      0.494650000000     0.720270000000     0.446260000000    -0.0690758  
C97      C      0.491870000000     0.676340000000     0.453910000000     0.0295949  
C98      C      0.533590000000     0.673840000000     0.463260000000    -0.124067   
C99      C      0.578590000000     0.715470000000     0.459430000000     0.0301142  
C100     C      0.581470000000     0.759710000000     0.450830000000    -0.0683212  
C101     C      0.466580000000     0.221890000000     0.520840000000    -0.0624995  
C102     C      0.488510000000     0.247600000000     0.556530000000     0.0195863  
C103     C      0.503830000000     0.226770000000     0.587840000000    -0.0632572  
C104     C      0.498600000000     0.181620000000     0.582930000000     0.019457   
C105     C      0.477910000000     0.156680000000     0.546640000000    -0.0931336  
C106     C      0.461480000000     0.177070000000     0.515900000000     0.0207197  
C107     C      0.495410000000     0.296140000000     0.560090000000     0.0287344  
C108     C      0.510300000000     0.327650000000     0.526480000000    -0.0733429  
C109     C      0.509320000000     0.370050000000     0.526520000000     0.0394915  
C110     C      0.494320000000     0.382430000000     0.560430000000    -0.131627   
C111     C      0.483350000000     0.353220000000     0.595500000000     0.0370788  
C112     C      0.483690000000     0.310050000000     0.595270000000    -0.0729729  
C113     C      0.556590000000     0.058820000000     0.738090000000    -0.0701695  
C114     C      0.560570000000     0.022690000000     0.760180000000     0.0250123  
C115     C      0.564620000000     0.988380000000     0.739070000000    -0.070278   
C116     C      0.561450000000     0.988390000000     0.696520000000     0.0321971  
C117     C      0.554880000000     0.023150000000     0.674370000000    -0.122061   
C118     C      0.554200000000     0.059320000000     0.695760000000     0.031731   
C119     C      0.557600000000     0.019790000000     0.804940000000     0.0244383  
C120     C      0.519340000000     0.020330000000     0.822230000000    -0.0695204  
C121     C      0.517940000000     0.021870000000     0.864220000000     0.0317732  
C122     C      0.555270000000     0.023750000000     0.890020000000    -0.120531   
C123     C      0.592550000000     0.021080000000     0.872790000000     0.0313581  
C124     C      0.593480000000     0.018710000000     0.830610000000    -0.0693435  
C125     C      0.487220000000     0.055030000000     0.228420000000    -0.0707806  
C126     C      0.510180000000     0.039680000000     0.257800000000     0.0257789  
C127     C      0.541480000000     0.025070000000     0.245300000000    -0.0714709  
C128     C      0.548620000000     0.024350000000     0.204260000000     0.0357542  
C129     C      0.524280000000     0.037840000000     0.174630000000    -0.128036   
C130     C      0.493950000000     0.053820000000     0.187140000000     0.0360406  
C131     C      0.500640000000     0.036740000000     0.301420000000     0.0258818  
C132     C      0.504940000000     0.076050000000     0.321760000000    -0.070596   
C133     C      0.502910000000     0.074630000000     0.364180000000     0.0354977  
C134     C      0.496460000000     0.033830000000     0.386500000000    -0.128781   
C135     C      0.488360000000     0.993410000000     0.365610000000     0.0379634  
C136     C      0.490450000000     0.994860000000     0.323650000000    -0.0719652  
C137     C      0.524050000000     0.738090000000     0.994330000000    -0.0703599  
C138     C      0.568650000000     0.778400000000     0.985060000000     0.0239494  
C139     C      0.607410000000     0.771050000000     0.979580000000    -0.0700644  
C140     C      0.602040000000     0.725170000000     0.984780000000     0.0313734  
C141     C      0.557700000000     0.685460000000     0.995340000000    -0.127093   
C142     C      0.518610000000     0.692500000000     0.999030000000     0.0323773  
C143     C      0.574600000000     0.827670000000     0.983990000000     0.024096   
C144     C      0.535320000000     0.834080000000     0.972680000000    -0.0702813  
C145     C      0.537700000000     0.877740000000     0.978710000000     0.0347467  
C146     C      0.579930000000     0.916840000000     0.994810000000    -0.130461   
C147     C      0.620690000000     0.912210000000     0.002720000000     0.0321931  
C148     C      0.617940000000     0.867970000000     0.997810000000    -0.0697498  
C149     C      0.604970000000     0.368690000000     0.094540000000    -0.0662517  
C150     C      0.566070000000     0.321650000000     0.097650000000     0.0240644  
C151     C      0.520450000000     0.314700000000     0.104560000000    -0.0678787  
C152     C      0.513000000000     0.353820000000     0.104120000000     0.0297723  
C153     C      0.551100000000     0.400680000000     0.096880000000    -0.113851   
C154     C      0.597670000000     0.407760000000     0.094860000000     0.0331844  
C155     C      0.571570000000     0.280190000000     0.088420000000     0.0264248  
C156     C      0.591580000000     0.280050000000     0.051970000000    -0.0705511  
C157     C      0.590320000000     0.238640000000     0.039680000000     0.0351586  
C158     C      0.570110000000     0.196790000000     0.063990000000    -0.124032   
C159     C      0.552790000000     0.197840000000     0.101670000000     0.0361643  
C160     C      0.552920000000     0.238940000000     0.113510000000    -0.0705874  
C161     C      0.755640000000     0.357170000000     0.516260000000    -0.0679056  
C162     C      0.748970000000     0.318640000000     0.493270000000     0.0242248  
C163     C      0.788230000000     0.324380000000     0.472170000000    -0.0673365  
C164     C      0.833640000000     0.365700000000     0.476690000000     0.0342623  
C165     C      0.840980000000     0.401800000000     0.502900000000    -0.12492    
C166     C      0.801160000000     0.397980000000     0.521320000000     0.0345806  
C167     C      0.703080000000     0.271290000000     0.494320000000     0.0278808  
C168     C      0.677020000000     0.254230000000     0.529970000000    -0.0712721  
C169     C      0.637360000000     0.207530000000     0.532470000000     0.0400575  
C170     C      0.623460000000     0.176600000000     0.499680000000    -0.136528   
C171     C      0.647970000000     0.194250000000     0.463570000000     0.0405608  
C172     C      0.686880000000     0.240990000000     0.460790000000    -0.0731509  
C173     C      0.231730000000     0.729710000000     0.560970000000    -0.0757463  
C174     C      0.243370000000     0.752740000000     0.598450000000     0.0281313  
C175     C      0.207620000000     0.736790000000     0.626850000000    -0.0760674  
C176     C      0.161170000000     0.698580000000     0.617790000000     0.042203   
C177     C      0.149530000000     0.676210000000     0.579940000000    -0.144553   
C178     C      0.185470000000     0.692020000000     0.551820000000     0.0427567  
C179     C      0.292530000000     0.794050000000     0.606520000000     0.0251093  
C180     C      0.332250000000     0.791980000000     0.594470000000    -0.072707   
C181     C      0.377270000000     0.833250000000     0.593310000000     0.0396134  
C182     C      0.383910000000     0.877580000000     0.604610000000    -0.134834   
C183     C      0.345680000000     0.878930000000     0.621100000000     0.0357579  
C184     C      0.300010000000     0.837380000000     0.621730000000    -0.0721819  
C185     C      0.774010000000     0.500060000000     0.584800000000    -0.0739424  
C186     C      0.768840000000     0.518020000000     0.546140000000     0.0296943  
C187     C      0.807000000000     0.535760000000     0.520090000000    -0.0741501  
C188     C      0.850190000000     0.538610000000     0.533070000000     0.0389093  
C189     C      0.856480000000     0.523250000000     0.572320000000    -0.134305   
C190     C      0.817580000000     0.502480000000     0.597780000000     0.0359807  
C191     C      0.725190000000     0.520790000000     0.533180000000     0.015298   
C192     C      0.678960000000     0.483400000000     0.542050000000    -0.0562463  
C193     C      0.638400000000     0.486750000000     0.529800000000     0.0108713  
C194     C      0.643090000000     0.527580000000     0.508420000000    -0.0694515  
C195     C      0.689250000000     0.564720000000     0.499220000000     0.00842997 
C196     C      0.729740000000     0.561450000000     0.511550000000    -0.0564438  
C197     C      0.309410000000     0.572080000000     0.568140000000    -0.076577   
C198     C      0.266330000000     0.530040000000     0.577090000000     0.0287747  
C199     C      0.268640000000     0.489760000000     0.592590000000    -0.0750275  
C200     C      0.312690000000     0.490690000000     0.596100000000     0.039518   
C201     C      0.354590000000     0.531220000000     0.582760000000    -0.144994   
C202     C      0.352720000000     0.572470000000     0.570440000000     0.0453565  
C203     C      0.219570000000     0.528140000000     0.567870000000     0.02355    
C204     C      0.180160000000     0.501400000000     0.592360000000    -0.0692525  
C205     C      0.136530000000     0.499920000000     0.582980000000     0.0327701  
C206     C      0.131470000000     0.525440000000     0.549130000000    -0.12708    
C207     C      0.170760000000     0.552170000000     0.524730000000     0.0344211  
C208     C      0.214030000000     0.553120000000     0.533730000000    -0.0701926  
C209     C      0.032790000000     0.519200000000     0.761450000000    -0.0744239  
C210     C      0.055130000000     0.566400000000     0.775570000000     0.0272514  
C211     C      0.067780000000     0.604370000000     0.747550000000    -0.0748794  
C212     C      0.055050000000     0.595040000000     0.706420000000     0.0423302  
C213     C      0.030270000000     0.547680000000     0.692510000000    -0.13805    
C214     C      0.020930000000     0.509920000000     0.720120000000     0.0403511  
C215     C      0.059070000000     0.575320000000     0.819480000000     0.0244194  
C216     C      0.017540000000     0.551750000000     0.841690000000    -0.0740786  
C217     C      0.019630000000     0.560140000000     0.882840000000     0.0266459  
C218     C      0.063600000000     0.591690000000     0.903180000000    -0.12661    
C219     C      0.105240000000     0.616070000000     0.880790000000     0.0324312  
C220     C      0.102870000000     0.608330000000     0.839070000000    -0.071115   
C221     C      0.067620000000     0.521410000000     0.256370000000    -0.0699354  
C222     C      0.046530000000     0.540850000000     0.279120000000     0.0245713  
C223     C      0.028780000000     0.568410000000     0.258700000000    -0.0699881  
C224     C      0.031350000000     0.575740000000     0.216710000000     0.0331477  
C225     C      0.051460000000     0.555480000000     0.193820000000    -0.124927   
C226     C      0.070150000000     0.528720000000     0.214240000000     0.030525   
C227     C      0.042180000000     0.532300000000     0.323840000000     0.0255763  
C228     C      0.029230000000     0.487100000000     0.341870000000    -0.0691987  
C229     C      0.020230000000     0.478480000000     0.383410000000     0.0333987  
C230     C      0.023630000000     0.514800000000     0.407340000000    -0.126368   
C231     C      0.038990000000     0.560450000000     0.389680000000     0.0357608  
C232     C      0.048430000000     0.569150000000     0.348700000000    -0.0721897  
C233     C      0.824780000000     0.372580000000     0.961410000000    -0.0714941  
C234     C      0.807350000000     0.329950000000     0.984660000000     0.0243666  
C235     C      0.831840000000     0.330080000000     0.021380000000    -0.0725493  
C236     C      0.874070000000     0.370950000000     0.033750000000     0.0330736  
C237     C      0.893100000000     0.413140000000     0.009850000000    -0.128762   
C238     C      0.867580000000     0.413930000000     0.973850000000     0.0318631  
C239     C      0.764550000000     0.284370000000     0.971390000000     0.027766   
C240     C      0.720070000000     0.281250000000     0.961180000000    -0.0730767  
C241     C      0.677850000000     0.236190000000     0.958620000000     0.0388471  
C242     C      0.680020000000     0.194290000000     0.966760000000    -0.137011   
C243     C      0.724930000000     0.197570000000     0.972760000000     0.0438179  
C244     C      0.766790000000     0.242100000000     0.974630000000    -0.0752171  
C245     C      0.313620000000     0.868110000000     0.049880000000    -0.0705144  
C246     C      0.309070000000     0.835340000000     0.081560000000     0.0261648  
C247     C      0.350730000000     0.843610000000     0.104330000000    -0.0727474  
C248     C      0.395670000000     0.881950000000     0.094920000000     0.0383002  
C249     C      0.400800000000     0.914110000000     0.062690000000    -0.130392   
C250     C      0.359080000000     0.907260000000     0.040610000000     0.0352931  
C251     C      0.262160000000     0.790920000000     0.089760000000     0.0220518  
C252     C      0.218350000000     0.790730000000     0.087970000000    -0.0690936  
C253     C      0.174670000000     0.747830000000     0.094010000000     0.0299312  
C254     C      0.173840000000     0.704140000000     0.101230000000    -0.124442   
C255     C      0.217870000000     0.705010000000     0.105000000000     0.0255211  
C256     C      0.261180000000     0.747530000000     0.099180000000    -0.069134   
C257     C      0.837220000000     0.539430000000     0.085970000000    -0.0748693  
C258     C      0.798560000000     0.494710000000     0.073620000000     0.0310373  
C259     C      0.805650000000     0.455100000000     0.074290000000    -0.0727272  
C260     C      0.851410000000     0.461220000000     0.084000000000     0.0408732  
C261     C      0.890400000000     0.506970000000     0.092790000000    -0.137056   
C262     C      0.882320000000     0.545310000000     0.095660000000     0.0467675  
C263     C      0.752990000000     0.491630000000     0.057240000000     0.0181177  
C264     C      0.738220000000     0.521430000000     0.072820000000    -0.0639194  
C265     C      0.700760000000     0.525450000000     0.053840000000     0.0196974  
C266     C      0.675250000000     0.498200000000     0.019680000000    -0.0946624  
C267     C      0.687630000000     0.465980000000     0.005270000000     0.0174016  
C268     C      0.726720000000     0.463210000000     0.023550000000    -0.0624441  
C269     C      0.216730000000     0.508290000000     0.046340000000    -0.0706224  
C270     C      0.243360000000     0.514560000000     0.012530000000     0.0241583  
C271     C      0.226530000000     0.522010000000     0.974000000000    -0.0705145  
C272     C      0.185960000000     0.527450000000     0.970150000000     0.0337048  
C273     C      0.162280000000     0.525520000000     0.004840000000    -0.133312   
C274     C      0.176880000000     0.514010000000     0.042570000000     0.0385173  
C275     C      0.290310000000     0.516960000000     0.018730000000     0.0271711  
C276     C      0.322830000000     0.544950000000     0.050070000000    -0.0753298  
C277     C      0.366170000000     0.545670000000     0.057890000000     0.0409456  
C278     C      0.377750000000     0.518160000000     0.034660000000    -0.142445   
C279     C      0.345700000000     0.491060000000     0.002660000000     0.0394291  
C280     C      0.302470000000     0.490650000000     0.994650000000    -0.0740014  
C281     C      0.825750000000     0.802350000000     0.590360000000    -0.0682893  
C282     C      0.780490000000     0.799080000000     0.588140000000     0.0231171  
C283     C      0.779080000000     0.841840000000     0.582220000000    -0.0691252  
C284     C      0.821260000000     0.886010000000     0.576860000000     0.0288602  
C285     C      0.866070000000     0.888690000000     0.576600000000    -0.12222    
C286     C      0.867890000000     0.846470000000     0.584520000000     0.0271181  
C287     C      0.734850000000     0.751330000000     0.589210000000     0.0244265  
C288     C      0.731160000000     0.710920000000     0.571110000000    -0.0681586  
C289     C      0.686920000000     0.667950000000     0.567610000000     0.0336559  
C290     C      0.645100000000     0.664410000000     0.581670000000    -0.120433   
C291     C      0.649220000000     0.703730000000     0.601730000000     0.0316964  
C292     C      0.693470000000     0.746440000000     0.605690000000    -0.0693698  
C293     C      0.196780000000     0.260620000000     0.526460000000    -0.0713248  
C294     C      0.210930000000     0.281860000000     0.487920000000     0.0260426  
C295     C      0.186500000000     0.254670000000     0.453370000000    -0.0719816  
C296     C      0.149500000000     0.206800000000     0.457460000000     0.0349458  
C297     C      0.137250000000     0.185230000000     0.496130000000    -0.129995   
C298     C      0.160600000000     0.212930000000     0.530490000000     0.0364638  
C299     C      0.253900000000     0.330630000000     0.484900000000     0.0251075  
C300     C      0.261200000000     0.365940000000     0.512130000000    -0.0701953  
C301     C      0.306480000000     0.406520000000     0.517780000000     0.0354864  
C302     C      0.345090000000     0.413280000000     0.495840000000    -0.12284    
C303     C      0.336800000000     0.380970000000     0.465290000000     0.036354   
C304     C      0.291400000000     0.339710000000     0.459910000000    -0.0687032  
C305     C      0.771060000000     0.955640000000     0.495510000000    -0.0714566  
C306     C      0.773730000000     0.000500000000     0.494850000000     0.0228742  
C307     C      0.814600000000     0.040710000000     0.479500000000    -0.0710283  
C308     C      0.853060000000     0.036960000000     0.467920000000     0.0289695  
C309     C      0.852530000000     0.993350000000     0.472750000000    -0.129672   
C310     C      0.810250000000     0.952100000000     0.484630000000     0.0332975  
C311     C      0.735400000000     0.006310000000     0.511510000000     0.0277267  
C312     C      0.725240000000     0.041140000000     0.494750000000    -0.0758174  
C313     C      0.690190000000     0.047650000000     0.510450000000     0.0416719  
C314     C      0.662820000000     0.018230000000     0.542410000000    -0.135679   
C315     C      0.673440000000     0.984080000000     0.560000000000     0.0373761  
C316     C      0.709770000000     0.978500000000     0.544960000000    -0.0747852  
C317     C      0.293640000000     0.000270000000     0.479290000000    -0.0681425  
C318     C      0.259810000000     0.975450000000     0.509190000000     0.025063   
C319     C      0.268140000000     0.946180000000     0.537440000000    -0.0696391  
C320     C      0.311310000000     0.945870000000     0.538450000000     0.0356383  
C321     C      0.346730000000     0.974030000000     0.510860000000    -0.124848   
C322     C      0.336440000000     0.999210000000     0.479920000000     0.03496    
C323     C      0.218840000000     0.983880000000     0.513080000000     0.0253907  
C324     C      0.203490000000     0.986120000000     0.551520000000    -0.0702791  
C325     C      0.168690000000     0.999280000000     0.555210000000     0.0319739  
C326     C      0.149220000000     0.011360000000     0.520610000000    -0.128443   
C327     C      0.163530000000     0.007840000000     0.482270000000     0.0355625  
C328     C      0.197280000000     0.993680000000     0.478530000000    -0.0710833  
C329     C      0.061270000000     0.849950000000     0.495830000000    -0.0719665  
C330     C      0.040410000000     0.822860000000     0.460780000000     0.0243534  
C331     C      0.028680000000     0.843110000000     0.426650000000    -0.0731374  
C332     C      0.032770000000     0.888130000000     0.429370000000     0.0349029  
C333     C      0.047830000000     0.912180000000     0.466380000000    -0.136667   
C334     C      0.064240000000     0.893960000000     0.498830000000     0.0394284  
C335     C      0.022640000000     0.771190000000     0.463980000000     0.0293255  
C336     C      0.041890000000     0.749590000000     0.441810000000    -0.0806347  
C337     C      0.032230000000     0.703200000000     0.452520000000     0.0531207  
C338     C      0.003760000000     0.678870000000     0.485610000000    -0.163953   
C339     C      0.981220000000     0.699000000000     0.505110000000     0.0558414  
C340     C      0.990290000000     0.744690000000     0.494150000000    -0.0777984  
C341     C      0.034320000000     0.243640000000     0.534700000000    -0.071873   
C342     C      0.030480000000     0.257020000000     0.573470000000     0.0275632  
C343     C      0.030890000000     0.229030000000     0.607300000000    -0.0731362  
C344     C      0.033570000000     0.187620000000     0.602150000000     0.030795   
C345     C      0.034790000000     0.173280000000     0.563040000000    -0.129376   
C346     C      0.036150000000     0.202170000000     0.529560000000     0.0339364  
C347     C      0.022770000000     0.298210000000     0.577180000000     0.0141488  
C348     C      0.048880000000     0.339810000000     0.553480000000    -0.0606551  
C349     C      0.035160000000     0.374290000000     0.549400000000     0.0187937  
C350     C      0.995470000000     0.368450000000     0.569390000000    -0.0857417  
C351     C      0.971810000000     0.329180000000     0.596010000000     0.0149897  
C352     C      0.985260000000     0.294040000000     0.599750000000    -0.0559658  
C353     C      0.974270000000     0.973540000000     0.815990000000    -0.0712318  
C354     C      0.981400000000     0.013000000000     0.791350000000     0.0240024  
C355     C      0.993320000000     0.056130000000     0.809890000000    -0.0669448  
C356     C      0.001090000000     0.060600000000     0.852020000000     0.0295347  
C357     C      0.996910000000     0.021960000000     0.876450000000    -0.132256   
C358     C      0.981720000000     0.977890000000     0.858030000000     0.0369698  
C359     C      0.979960000000     0.010310000000     0.746490000000     0.0280434  
C360     C      0.003240000000     0.989680000000     0.728300000000    -0.0732162  
C361     C      0.005760000000     0.990870000000     0.686140000000     0.0284698  
C362     C      0.984780000000     0.012460000000     0.661230000000    -0.123914   
C363     C      0.959900000000     0.031410000000     0.679390000000     0.0331464  
C364     C      0.957760000000     0.030590000000     0.721520000000    -0.0719344  
C365     C      0.974690000000     0.035120000000     0.305750000000    -0.0715557  
C366     C      0.972660000000     0.996050000000     0.287110000000     0.025746   
C367     C      0.966700000000     0.956450000000     0.310880000000    -0.0726814  
C368     C      0.964310000000     0.956520000000     0.352870000000     0.0361467  
C369     C      0.969120000000     0.996750000000     0.371880000000    -0.131697   
C370     C      0.973430000000     0.035690000000     0.347880000000     0.0335281  
C371     C      0.979860000000     0.998010000000     0.243320000000     0.0257824  
C372     C      0.950100000000     0.005810000000     0.215020000000    -0.0685793  
C373     C      0.958380000000     0.009650000000     0.173710000000     0.0290116  
C374     C      0.997290000000     0.006950000000     0.160210000000    -0.113691   
C375     C      0.026960000000     0.999000000000     0.188540000000     0.0250999  
C376     C      0.017960000000     0.994010000000     0.229770000000    -0.0710463  
C377     C      0.721020000000     0.751810000000     0.065770000000    -0.0744312  
C378     C      0.753850000000     0.748650000000     0.041800000000     0.0285593  
C379     C      0.746940000000     0.703120000000     0.034640000000    -0.074513   
C380     C      0.707840000000     0.662010000000     0.049960000000     0.0312468  
C381     C      0.673600000000     0.665030000000     0.071920000000    -0.138651   
C382     C      0.681070000000     0.710440000000     0.080280000000     0.0404511  
C383     C      0.795330000000     0.792600000000     0.024850000000     0.0198213  
C384     C      0.791700000000     0.833450000000     0.014810000000    -0.0619776  
C385     C      0.832420000000     0.876850000000     0.005220000000     0.0231654  
C386     C      0.877260000000     0.879970000000     0.004220000000    -0.0926877  
C387     C      0.880050000000     0.838220000000     0.009320000000     0.0208434  
C388     C      0.839640000000     0.795040000000     0.020290000000    -0.0623516  
C389     C      0.270970000000     0.233110000000     0.062020000000    -0.0710852  
C390     C      0.303490000000     0.227610000000     0.039860000000     0.0242822  
C391     C      0.291280000000     0.181460000000     0.028190000000    -0.0687538  
C392     C      0.245000000000     0.142610000000     0.034320000000     0.0310495  
C393     C      0.210860000000     0.149620000000     0.052120000000    -0.122909   
C394     C      0.224980000000     0.194430000000     0.068010000000     0.0355688  
C395     C      0.345980000000     0.270900000000     0.023950000000     0.0235554  
C396     C      0.339400000000     0.306680000000     0.004120000000    -0.0728399  
C397     C      0.378620000000     0.349650000000     0.991720000000     0.0262263  
C398     C      0.425620000000     0.358220000000     0.999050000000    -0.128202   
C399     C      0.432230000000     0.321130000000     0.016280000000     0.0311184  
C400     C      0.392560000000     0.277620000000     0.028620000000    -0.0716201  
C401     C      0.792560000000     0.106130000000     0.083560000000    -0.0735522  
C402     C      0.797820000000     0.066190000000     0.078950000000     0.0261262  
C403     C      0.757100000000     0.020010000000     0.081290000000    -0.0741974  
C404     C      0.711530000000     0.013940000000     0.085680000000     0.0363849  
C405     C      0.705640000000     0.054000000000     0.086930000000    -0.136712   
C406     C      0.746860000000     0.100120000000     0.087210000000     0.0329124  
C407     C      0.844460000000     0.072410000000     0.067780000000     0.0226801  
C408     C      0.845950000000     0.049650000000     0.033380000000    -0.067499   
C409     C      0.888760000000     0.053030000000     0.023130000000     0.0325459  
C410     C      0.931230000000     0.078580000000     0.047480000000    -0.110205   
C411     C      0.930290000000     0.103220000000     0.081010000000     0.0279156  
C412     C      0.887300000000     0.100490000000     0.090860000000    -0.0672058  
C413     C      0.260190000000     0.090120000000     0.947140000000    -0.0800809  
C414     C      0.265110000000     0.051850000000     0.963700000000     0.0311481  
C415     C      0.224010000000     0.007440000000     0.970540000000    -0.0796718  
C416     C      0.178710000000     0.002330000000     0.964620000000     0.048837   
C417     C      0.173490000000     0.041870000000     0.952550000000    -0.154293   
C418     C      0.214420000000     0.085220000000     0.941690000000     0.0445546  
C419     C      0.312340000000     0.058370000000     0.977500000000     0.0178421  
C420     C      0.348400000000     0.071510000000     0.950120000000    -0.0640534  
C421     C      0.391310000000     0.073260000000     0.963070000000     0.021161   
C422     C      0.399100000000     0.062720000000     0.003740000000    -0.0951879  
C423     C      0.363490000000     0.051030000000     0.031360000000     0.0205368  
C424     C      0.320290000000     0.048490000000     0.018240000000    -0.0646265  
C425     C      0.007220000000     0.729800000000     0.065680000000    -0.0767396  
C426     C      0.043060000000     0.777790000000     0.060000000000     0.0262383  
C427     C      0.082910000000     0.787860000000     0.037440000000    -0.0719528  
C428     C      0.087090000000     0.750720000000     0.021760000000     0.0316934  
C429     C      0.051120000000     0.702850000000     0.027690000000    -0.125414   
C430     C      0.010850000000     0.693030000000     0.049350000000     0.0294172  
C431     C      0.037370000000     0.817160000000     0.075250000000     0.0219472  
C432     C      0.991640000000     0.812880000000     0.074890000000    -0.0686296  
C433     C      0.987370000000     0.853170000000     0.079950000000     0.0385631  
C434     C      0.028730000000     0.898450000000     0.083700000000    -0.139316   
C435     C      0.073580000000     0.901510000000     0.090560000000     0.04146    
C436     C      0.077880000000     0.861140000000     0.086470000000    -0.0709962  
C437     C      0.046940000000     0.258260000000     0.998260000000    -0.0739352  
C438     C      0.077470000000     0.292560000000     0.027090000000     0.0261219  
C439     C      0.109060000000     0.283730000000     0.052110000000    -0.0757526  
C440     C      0.109600000000     0.241250000000     0.048870000000     0.0391133  
C441     C      0.078660000000     0.206700000000     0.020460000000    -0.143824   
C442     C      0.047650000000     0.215750000000     0.994880000000     0.0382284  
C443     C      0.075590000000     0.336900000000     0.031480000000     0.0248466  
C444     C      0.070370000000     0.361120000000     0.996940000000    -0.0723703  
C445     C      0.064080000000     0.400180000000     0.000830000000     0.0385392  
C446     C      0.063150000000     0.416110000000     0.039350000000    -0.135279   
C447     C      0.071150000000     0.393820000000     0.073980000000     0.0351272  
C448     C      0.077120000000     0.354320000000     0.070080000000    -0.0725251  
Co1      Co     0.070450000000     0.085930000000     0.070430000000     1.05164    
Co2      Co     0.035150000000     0.978630000000     0.988980000000     1.04992    
Co3      Co     0.084090000000     0.095990000000     0.974380000000     1.09449    
Co4      Co     0.982150000000     0.996640000000     0.034230000000     1.07043    
Co5      Co     0.053000000000     0.046070000000     0.466190000000     1.0674     
Co6      Co     0.956710000000     0.036420000000     0.537550000000     1.07454    
Co7      Co     0.958190000000     0.951630000000     0.496310000000     1.06961    
Co8      Co     0.062200000000     0.057560000000     0.563750000000     1.04421    
Co9      Co     0.027520000000     0.516010000000     0.992500000000     1.06404    
Co10     Co     0.024750000000     0.598280000000     0.073940000000     1.06578    
Co11     Co     0.015120000000     0.495260000000     0.088350000000     1.05335    
Co12     Co     0.114140000000     0.614030000000     0.028290000000     1.06308    
Co13     Co     0.987020000000     0.472740000000     0.528910000000     1.01038    
Co14     Co     0.003220000000     0.593010000000     0.583640000000     1.17846    
Co15     Co     0.949780000000     0.473380000000     0.591850000000     0.905609   
Co16     Co     0.038390000000     0.575850000000     0.500130000000     1.07781    
Co17     Co     0.506880000000     0.055070000000     0.048660000000     1.05584    
Co18     Co     0.623450000000     0.065780000000     0.010250000000     1.08883    
Co19     Co     0.537810000000     0.086210000000     0.981690000000     0.882331   
Co20     Co     0.552190000000     0.989240000000     0.073140000000     1.10584    
Co21     Co     0.474420000000     0.023610000000     0.582040000000     0.89438    
Co22     Co     0.567790000000     0.030720000000     0.489870000000     1.13344    
Co23     Co     0.489170000000     0.053290000000     0.512430000000     1.02984    
Co24     Co     0.512580000000     0.951950000000     0.558400000000     1.1048     
Co25     Co     0.557650000000     0.487020000000     0.010150000000     1.02051    
Co26     Co     0.522570000000     0.575080000000     0.070520000000     1.10902    
Co27     Co     0.465260000000     0.462160000000     0.048990000000     1.06644    
Co28     Co     0.600570000000     0.577110000000     0.012520000000     0.958037   
Co29     Co     0.492210000000     0.491310000000     0.499920000000     0.944051   
Co30     Co     0.492840000000     0.590840000000     0.557640000000     1.1485     
Co31     Co     0.454900000000     0.480870000000     0.587420000000     1.12797    
Co32     Co     0.551600000000     0.559450000000     0.508360000000     0.870009   
H1       H      0.574060000000     0.530040000000     0.756290000000     0.0511296  
H2       H      0.564870000000     0.533240000000     0.682870000000     0.0355472  
H3       H      0.479870000000     0.600730000000     0.692380000000     0.0272092  
H4       H      0.489580000000     0.597820000000     0.766730000000     0.0492173  
H5       H      0.556300000000     0.627670000000     0.826090000000     0.0490329  
H6       H      0.566510000000     0.615900000000     0.898790000000     0.0352495  
H7       H      0.518660000000     0.466710000000     0.879900000000     0.0375551  
H8       H      0.508610000000     0.478730000000     0.807100000000     0.0501335  
H9       H      0.560410000000     0.553860000000     0.259450000000     0.0515739  
H10      H      0.565860000000     0.557130000000     0.186660000000     0.0359749  
H11      H      0.419240000000     0.439720000000     0.174130000000     0.0284605  
H12      H      0.413960000000     0.436500000000     0.248190000000     0.0490425  
H13      H      0.515540000000     0.573200000000     0.306680000000     0.0466745  
H14      H      0.521890000000     0.575650000000     0.380570000000     0.0466688  
H15      H      0.457960000000     0.421520000000     0.386220000000     0.0446655  
H16      H      0.452130000000     0.419300000000     0.312310000000     0.0456839  
H17      H      0.608530000000     0.844210000000     0.486100000000     0.0465709  
H18      H      0.603730000000     0.913860000000     0.501920000000     0.0298478  
H19      H      0.467870000000     0.857440000000     0.434490000000     0.0256895  
H20      H      0.474330000000     0.789400000000     0.414530000000     0.0479739  
H21      H      0.461190000000     0.720410000000     0.443470000000     0.0464752  
H22      H      0.456560000000     0.644630000000     0.455840000000     0.0380991  
H23      H      0.611390000000     0.714470000000     0.465950000000     0.0370331  
H24      H      0.616730000000     0.791500000000     0.449790000000     0.04655    
H25      H      0.520840000000     0.245820000000     0.615640000000     0.0457246  
H26      H      0.511570000000     0.166730000000     0.607200000000     0.0395096  
H27      H      0.444820000000     0.158520000000     0.487820000000     0.0425577  
H28      H      0.453300000000     0.236490000000     0.496550000000     0.0482534  
H29      H      0.520940000000     0.318600000000     0.499410000000     0.0510443  
H30      H      0.518780000000     0.392470000000     0.499320000000     0.0429234  
H31      H      0.471630000000     0.362150000000     0.621960000000     0.0255175  
H32      H      0.472220000000     0.286430000000     0.621670000000     0.0484996  
H33      H      0.567890000000     0.960250000000     0.755450000000     0.0478082  
H34      H      0.562230000000     0.960070000000     0.681060000000     0.0296653  
H35      H      0.549360000000     0.086810000000     0.679910000000     0.0345728  
H36      H      0.554120000000     0.086130000000     0.753650000000     0.0490093  
H37      H      0.490850000000     0.020510000000     0.803110000000     0.0488812  
H38      H      0.488620000000     0.023830000000     0.876260000000     0.0353522  
H39      H      0.621790000000     0.022320000000     0.891790000000     0.0313466  
H40      H      0.623270000000     0.018120000000     0.818000000000     0.0479709  
H41      H      0.560230000000     0.013740000000     0.267380000000     0.0493965  
H42      H      0.572400000000     0.012120000000     0.195760000000     0.0324938  
H43      H      0.474970000000     0.064840000000     0.165040000000     0.0393829  
H44      H      0.462970000000     0.066500000000     0.237280000000     0.0493121  
H45      H      0.512610000000     0.108710000000     0.305190000000     0.0491483  
H46      H      0.509500000000     0.106330000000     0.379580000000     0.0344065  
H47      H      0.482710000000     0.961230000000     0.381980000000     0.0342984  
H48      H      0.485860000000     0.963670000000     0.308680000000     0.0492042  
H49      H      0.642190000000     0.800790000000     0.971900000000     0.045678   
H50      H      0.633010000000     0.721150000000     0.981830000000     0.0323267  
H51      H      0.483890000000     0.662960000000     0.007260000000     0.0340015  
H52      H      0.493400000000     0.741710000000     0.999830000000     0.0474031  
H53      H      0.501860000000     0.804850000000     0.960430000000     0.0475559  
H54      H      0.505880000000     0.880480000000     0.971970000000     0.0318591  
H55      H      0.653690000000     0.941760000000     0.015330000000     0.0268902  
H56      H      0.649030000000     0.864880000000     0.007080000000     0.0447801  
H57      H      0.489760000000     0.278800000000     0.107080000000     0.0472053  
H58      H      0.476680000000     0.346870000000     0.106140000000     0.0321767  
H59      H      0.628070000000     0.443290000000     0.090440000000     0.0396528  
H60      H      0.640680000000     0.375160000000     0.089840000000     0.0495843  
H61      H      0.605780000000     0.311170000000     0.031810000000     0.050783   
H62      H      0.603520000000     0.238840000000     0.010430000000     0.0295547  
H63      H      0.536480000000     0.165990000000     0.120930000000     0.0385947  
H64      H      0.537270000000     0.238070000000     0.141730000000     0.0491745  
H65      H      0.785000000000     0.295600000000     0.454410000000     0.048615   
H66      H      0.863820000000     0.367230000000     0.462760000000     0.0379935  
H67      H      0.805840000000     0.425210000000     0.541840000000     0.033427   
H68      H      0.726240000000     0.354980000000     0.532000000000     0.0476905  
H69      H      0.688460000000     0.276030000000     0.556710000000     0.0492077  
H70      H      0.619150000000     0.194920000000     0.560670000000     0.0351929  
H71      H      0.637560000000     0.171520000000     0.437450000000     0.0310971  
H72      H      0.704860000000     0.252950000000     0.432490000000     0.0489675  
H73      H      0.215590000000     0.753770000000     0.655980000000     0.0480203  
H74      H      0.134170000000     0.687290000000     0.640070000000     0.0260167  
H75      H      0.177780000000     0.675570000000     0.522450000000     0.0275017  
H76      H      0.258200000000     0.741600000000     0.538130000000     0.0500792  
H77      H      0.327970000000     0.758870000000     0.583750000000     0.0480572  
H78      H      0.406430000000     0.830940000000     0.581310000000     0.0250911  
H79      H      0.350020000000     0.912630000000     0.630270000000     0.0286061  
H80      H      0.270050000000     0.839980000000     0.631400000000     0.0467012  
H81      H      0.803900000000     0.548430000000     0.489730000000     0.0514698  
H82      H      0.879270000000     0.553830000000     0.512400000000     0.0371058  
H83      H      0.821530000000     0.490270000000     0.628100000000     0.0282861  
H84      H      0.745210000000     0.486040000000     0.605620000000     0.0493645  
H85      H      0.674080000000     0.451440000000     0.558290000000     0.0450294  
H86      H      0.603410000000     0.457580000000     0.537700000000     0.0453749  
H87      H      0.694300000000     0.596910000000     0.483280000000     0.0440904  
H88      H      0.764830000000     0.591390000000     0.504800000000     0.044871   
H89      H      0.236290000000     0.456810000000     0.600180000000     0.047167   
H90      H      0.313350000000     0.458820000000     0.606730000000     0.0238213  
H91      H      0.384730000000     0.604970000000     0.561310000000     0.0233256  
H92      H      0.309630000000     0.604550000000     0.558030000000     0.0480966  
H93      H      0.183090000000     0.482060000000     0.619020000000     0.0475991  
H94      H      0.106840000000     0.478970000000     0.602450000000     0.040068   
H95      H      0.167930000000     0.571840000000     0.498230000000     0.0314566  
H96      H      0.242960000000     0.573020000000     0.513380000000     0.0477102  
H97      H      0.084740000000     0.640980000000     0.757730000000     0.0490051  
H98      H      0.062920000000     0.624820000000     0.685640000000     0.0260595  
H99      H      0.001820000000     0.473120000000     0.710210000000     0.0287984  
H100     H      0.022780000000     0.489360000000     0.782630000000     0.0482019  
H101     H      0.983180000000     0.526930000000     0.827090000000     0.0517831  
H102     H      0.986690000000     0.540710000000     0.898900000000     0.0342676  
H103     H      0.139610000000     0.640480000000     0.895560000000     0.0307988  
H104     H      0.135280000000     0.627320000000     0.822290000000     0.0478974  
H105     H      0.011570000000     0.583350000000     0.275020000000     0.0485036  
H106     H      0.016280000000     0.596230000000     0.202090000000     0.0315647  
H107     H      0.085900000000     0.512520000000     0.197580000000     0.0342473  
H108     H      0.082150000000     0.500510000000     0.271080000000     0.0473519  
H109     H      0.024010000000     0.457830000000     0.323590000000     0.0479033  
H110     H      0.008400000000     0.443000000000     0.396260000000     0.0336944  
H111     H      0.042840000000     0.589540000000     0.407470000000     0.0182126  
H112     H      0.059740000000     0.604730000000     0.336320000000     0.0477903  
H113     H      0.818550000000     0.298110000000     0.040490000000     0.0497759  
H114     H      0.892250000000     0.369040000000     0.061900000000     0.0316506  
H115     H      0.881210000000     0.446010000000     0.954890000000     0.0342463  
H116     H      0.806260000000     0.373450000000     0.933140000000     0.0480614  
H117     H      0.717470000000     0.313370000000     0.958350000000     0.047799   
H118     H      0.643470000000     0.234290000000     0.953810000000     0.0259289  
H119     H      0.727410000000     0.165640000000     0.978900000000     0.0134595  
H120     H      0.800720000000     0.243490000000     0.981580000000     0.0494241  
H121     H      0.348790000000     0.820120000000     0.129570000000     0.0482079  
H122     H      0.426600000000     0.886310000000     0.113330000000     0.0315451  
H123     H      0.361610000000     0.931640000000     0.015950000000     0.0354462  
H124     H      0.282300000000     0.862800000000     0.031570000000     0.047339   
H125     H      0.217750000000     0.823560000000     0.081470000000     0.0459578  
H126     H      0.141490000000     0.748550000000     0.091260000000     0.0347686  
H127     H      0.218750000000     0.672160000000     0.110480000000     0.0350689  
H128     H      0.293860000000     0.745820000000     0.100460000000     0.0468705  
H129     H      0.776500000000     0.419950000000     0.065700000000     0.0488849  
H130     H      0.856980000000     0.431200000000     0.081570000000     0.0253931  
H131     H      0.912060000000     0.581090000000     0.101920000000     0.0157565  
H132     H      0.833960000000     0.571140000000     0.085310000000     0.0489722  
H133     H      0.756040000000     0.542400000000     0.099600000000     0.0464265  
H134     H      0.690780000000     0.548960000000     0.067010000000     0.0468894  
H135     H      0.667810000000     0.443770000000     0.979540000000     0.0375036  
H136     H      0.737150000000     0.439990000000     0.010530000000     0.0456531  
H137     H      0.246410000000     0.526650000000     0.947400000000     0.0477087  
H138     H      0.175500000000     0.536730000000     0.940850000000     0.0261628  
H139     H      0.159000000000     0.512090000000     0.069780000000     0.0443779  
H140     H      0.228110000000     0.501240000000     0.076160000000     0.0493922  
H141     H      0.314610000000     0.566240000000     0.068690000000     0.0496165  
H142     H      0.390220000000     0.567190000000     0.082460000000     0.0283732  
H143     H      0.353770000000     0.469730000000     0.983940000000     0.0353769  
H144     H      0.278030000000     0.468830000000     0.970370000000     0.0486893  
H145     H      0.745150000000     0.841140000000     0.579780000000     0.0444741  
H146     H      0.818360000000     0.917680000000     0.570880000000     0.0312533  
H147     H      0.901800000000     0.847190000000     0.584890000000     0.0359434  
H148     H      0.828670000000     0.770620000000     0.595770000000     0.0471506  
H149     H      0.761840000000     0.713080000000     0.557650000000     0.0476191  
H150     H      0.685020000000     0.638540000000     0.551700000000     0.0380965  
H151     H      0.617770000000     0.702100000000     0.613200000000     0.029635   
H152     H      0.694870000000     0.776070000000     0.620800000000     0.0460648  
H153     H      0.196580000000     0.270140000000     0.423310000000     0.0478304  
H154     H      0.132020000000     0.186140000000     0.430460000000     0.0274501  
H155     H      0.151640000000     0.197360000000     0.560680000000     0.0305388  
H156     H      0.215230000000     0.280200000000     0.553740000000     0.0489766  
H157     H      0.232810000000     0.360500000000     0.531230000000     0.0471129  
H158     H      0.312210000000     0.431050000000     0.541270000000     0.0259908  
H159     H      0.366310000000     0.385220000000     0.448310000000     0.036094   
H160     H      0.286940000000     0.313110000000     0.438750000000     0.0488261  
H161     H      0.818530000000     0.076000000000     0.478670000000     0.0475502  
H162     H      0.884980000000     0.069350000000     0.458430000000     0.0358213  
H163     H      0.808610000000     0.917850000000     0.488280000000     0.0324951  
H164     H      0.739490000000     0.923570000000     0.505830000000     0.0446747  
H165     H      0.743250000000     0.062640000000     0.468520000000     0.0484469  
H166     H      0.682520000000     0.073790000000     0.495540000000     0.0220687  
H167     H      0.652620000000     0.960670000000     0.584420000000     0.0249242  
H168     H      0.717390000000     0.952140000000     0.559380000000     0.0456835  
H169     H      0.242440000000     0.925360000000     0.560130000000     0.0466853  
H170     H      0.318380000000     0.926170000000     0.562560000000     0.0289615  
H171     H      0.363430000000     0.021980000000     0.458700000000     0.0403999  
H172     H      0.289030000000     0.023570000000     0.457150000000     0.0486378  
H173     H      0.219610000000     0.979530000000     0.578980000000     0.0474172  
H174     H      0.158270000000     0.001560000000     0.585100000000     0.0297136  
H175     H      0.148490000000     0.015940000000     0.454860000000     0.0318556  
H176     H      0.206940000000     0.991140000000     0.448410000000     0.0482349  
H177     H      0.012440000000     0.822510000000     0.399410000000     0.0477428  
H178     H      0.019470000000     0.901580000000     0.404180000000     0.0246222  
H179     H      0.075410000000     0.911700000000     0.527750000000     0.0349162  
H180     H      0.070880000000     0.834920000000     0.522340000000     0.05075    
H181     H      0.066860000000     0.769660000000     0.418410000000     0.0505875  
H182     H      0.050170000000     0.688150000000     0.437340000000     0.0189171  
H183     H      0.958940000000     0.680580000000     0.530530000000     0.0245939  
H184     H      0.974620000000     0.760710000000     0.511180000000     0.052749   
H185     H      0.028150000000     0.238600000000     0.637520000000     0.0465254  
H186     H      0.031930000000     0.165480000000     0.628370000000     0.0279573  
H187     H      0.036970000000     0.191740000000     0.499110000000     0.0382396  
H188     H      0.033490000000     0.263970000000     0.507930000000     0.0504597  
H189     H      0.078560000000     0.344590000000     0.536440000000     0.0462242  
H190     H      0.054630000000     0.404880000000     0.529320000000     0.0447491  
H191     H      0.941220000000     0.324140000000     0.611800000000     0.0317961  
H192     H      0.964400000000     0.262270000000     0.618190000000     0.045182   
H193     H      0.999210000000     0.087250000000     0.791690000000     0.0472239  
H194     H      0.012740000000     0.095040000000     0.865140000000     0.0322429  
H195     H      0.977720000000     0.947180000000     0.875880000000     0.0314208  
H196     H      0.964220000000     0.939610000000     0.802650000000     0.0489809  
H197     H      0.021110000000     0.974160000000     0.746740000000     0.0480535  
H198     H      0.025110000000     0.975890000000     0.673160000000     0.0353703  
H199     H      0.943190000000     0.048230000000     0.661140000000     0.0316962  
H200     H      0.939170000000     0.046320000000     0.734610000000     0.0476759  
H201     H      0.964820000000     0.925870000000     0.296990000000     0.0499079  
H202     H      0.961070000000     0.926010000000     0.370560000000     0.0310761  
H203     H      0.977130000000     0.067100000000     0.361760000000     0.0355006  
H204     H      0.979400000000     0.066080000000     0.287890000000     0.0489414  
H205     H      0.920560000000     0.009010000000     0.224910000000     0.0490521  
H206     H      0.935160000000     0.016090000000     0.152450000000     0.0391518  
H207     H      0.057090000000     0.996690000000     0.178830000000     0.0355432  
H208     H      0.041530000000     0.988310000000     0.251220000000     0.0479024  
H209     H      0.770780000000     0.698820000000     0.016040000000     0.047356   
H210     H      0.703230000000     0.627680000000     0.042570000000     0.0238349  
H211     H      0.655410000000     0.713960000000     0.097110000000     0.0286659  
H212     H      0.725820000000     0.786230000000     0.073180000000     0.0491845  
H213     H      0.757900000000     0.832630000000     0.016100000000     0.0438023  
H214     H      0.829460000000     0.908720000000     0.001100000000     0.0347539  
H215     H      0.914310000000     0.839840000000     0.008610000000     0.0311613  
H216     H      0.844220000000     0.764590000000     0.027670000000     0.0442801  
H217     H      0.315870000000     0.176190000000     0.011410000000     0.0479051  
H218     H      0.234670000000     0.107940000000     0.022570000000     0.0280675  
H219     H      0.199010000000     0.200720000000     0.081470000000     0.026923   
H220     H      0.279850000000     0.268200000000     0.071940000000     0.0467031  
H221     H      0.303740000000     0.301840000000     0.999010000000     0.0487195  
H222     H      0.372170000000     0.377130000000     0.978000000000     0.0327851  
H223     H      0.468030000000     0.326540000000     0.021950000000     0.0383542  
H224     H      0.398440000000     0.250220000000     0.043320000000     0.0481458  
H225     H      0.760310000000     0.988580000000     0.078230000000     0.0492701  
H226     H      0.680660000000     0.977980000000     0.085450000000     0.0295938  
H227     H      0.743520000000     0.131720000000     0.088200000000     0.0333428  
H228     H      0.823330000000     0.142070000000     0.081850000000     0.0480994  
H229     H      0.813680000000     0.028630000000     0.014550000000     0.0473828  
H230     H      0.887860000000     0.033680000000     0.996980000000     0.0409937  
H231     H      0.962240000000     0.123120000000     0.100450000000     0.0329138  
H232     H      0.887120000000     0.118750000000     0.117360000000     0.0471986  
H233     H      0.227040000000     0.977180000000     0.982370000000     0.0505635  
H234     H      0.147910000000     0.968000000000     0.972310000000     0.031624   
H235     H      0.211520000000     0.116210000000     0.932190000000     0.0274441  
H236     H      0.291720000000     0.124630000000     0.941330000000     0.0493918  
H237     H      0.342830000000     0.079100000000     0.918590000000     0.0468465  
H238     H      0.418460000000     0.082950000000     0.941200000000     0.0347878  
H239     H      0.368600000000     0.042950000000     0.062850000000     0.0408668  
H240     H      0.292810000000     0.038430000000     0.039870000000     0.0477252  
H241     H      0.110790000000     0.824440000000     0.031470000000     0.046366   
H242     H      0.118610000000     0.759360000000     0.005500000000     0.0275012  
H243     H      0.982560000000     0.656550000000     0.055230000000     0.0186451  
H244     H      0.976440000000     0.720310000000     0.083280000000     0.0481817  
H245     H      0.959330000000     0.779640000000     0.066860000000     0.0459504  
H246     H      0.952340000000     0.849840000000     0.075110000000     0.030432   
H247     H      0.106040000000     0.936170000000     0.093890000000     0.0325592  
H248     H      0.113400000000     0.865350000000     0.088960000000     0.0471016  
H249     H      0.133480000000     0.309730000000     0.074150000000     0.0473808  
H250     H      0.134240000000     0.235410000000     0.068810000000     0.0269065  
H251     H      0.023220000000     0.189600000000     0.972940000000     0.0319153  
H252     H      0.021680000000     0.263740000000     0.978910000000     0.0478821  
H253     H      0.070370000000     0.349420000000     0.966820000000     0.047433   
H254     H      0.058990000000     0.417370000000     0.973540000000     0.0303957  
H255     H      0.070670000000     0.405510000000     0.103990000000     0.0263788  
H256     H      0.080990000000     0.336290000000     0.097300000000     0.0466232  
O1       O      0.096560000000     0.148940000000     0.048200000000    -0.451856   
O2       O      0.961310000000     0.936140000000     0.994970000000    -0.443326   
O3       O      0.032010000000     0.069330000000     0.935530000000    -0.445864   
O4       O      0.967880000000     0.043250000000     0.014460000000    -0.421926   
O5       O      0.018980000000     0.996130000000     0.937970000000    -0.468725   
O6       O      0.008020000000     0.086780000000     0.067930000000    -0.403686   
O7       O      0.920430000000     0.954600000000     0.034450000000    -0.414338   
O8       O      0.056280000000     0.131480000000     0.991420000000    -0.444666   
O9       O      0.049660000000     0.031240000000     0.105400000000    -0.430144   
O10      O      0.097650000000     0.004350000000     0.979240000000    -0.470617   
O11      O      0.142490000000     0.125940000000     0.009450000000    -0.420959   
O12      O      0.993500000000     0.946620000000     0.064030000000    -0.399338   
O13      O      0.054190000000     0.957300000000     0.034330000000    -0.455926   
O14      O      0.132010000000     0.092180000000     0.071070000000    -0.414116   
O15      O      0.975020000000     0.006540000000     0.090220000000    -0.382592   
O16      O      0.118780000000     0.071770000000     0.948300000000    -0.454973   
O17      O      0.049650000000     0.042140000000     0.019720000000    -0.565115   
O18      O      0.001470000000     0.040490000000     0.432080000000    -0.428308   
O19      O      0.998640000000     0.101360000000     0.527540000000    -0.429946   
O20      O      0.900380000000     0.956850000000     0.483900000000    -0.418526   
O21      O      0.108600000000     0.111510000000     0.532350000000    -0.425984   
O22      O      0.935380000000     0.033670000000     0.483500000000    -0.430377   
O23      O      0.070240000000     0.110260000000     0.474910000000    -0.423887   
O24      O      0.046460000000     0.106480000000     0.579080000000    -0.413581   
O25      O      0.964170000000     0.962870000000     0.438070000000    -0.428717   
O26      O      0.110180000000     0.052240000000     0.493630000000    -0.432963   
O27      O      0.906740000000     0.970680000000     0.553480000000    -0.418178   
O28      O      0.008120000000     0.939130000000     0.503840000000    -0.44114    
O29      O      0.021590000000     0.010680000000     0.601570000000    -0.424079   
O30      O      0.972130000000     0.038210000000     0.595340000000    -0.430325   
O31      O      0.045150000000     0.983850000000     0.451720000000    -0.424087   
O32      O      0.087930000000     0.017500000000     0.553030000000    -0.415954   
O33      O      0.943920000000     0.931160000000     0.550660000000    -0.422807   
O34      O      0.007880000000     0.022520000000     0.516700000000    -0.523319   
O35      O      0.961200000000     0.491260000000     0.999630000000    -0.415036   
O36      O      0.021940000000     0.621460000000     0.021910000000    -0.421943   
O37      O      0.961550000000     0.501290000000     0.107600000000    -0.41676    
O38      O      0.104670000000     0.610500000000     0.968620000000    -0.415779   
O39      O      0.962680000000     0.552040000000     0.061840000000    -0.445457   
O40      O      0.027700000000     0.567990000000     0.965850000000    -0.429927   
O41      O      0.097960000000     0.666270000000     0.020940000000    -0.4085     
O42      O      0.963680000000     0.449730000000     0.052870000000    -0.427713   
O43      O      0.093830000000     0.531940000000     0.979590000000    -0.415945   
O44      O      0.026820000000     0.577820000000     0.130580000000    -0.423793   
O45      O      0.059850000000     0.477540000000     0.074010000000    -0.429548   
O46      O      0.131570000000     0.623520000000     0.083620000000    -0.427096   
O47      O      0.088270000000     0.654570000000     0.091390000000    -0.412014   
O48      O      0.026780000000     0.459420000000     0.012870000000    -0.442145   
O49      O      0.136280000000     0.572400000000     0.032520000000    -0.451544   
O50      O      0.060110000000     0.533790000000     0.128790000000    -0.425898   
O51      O      0.046090000000     0.555260000000     0.046600000000    -0.511636   
O52      O      0.926580000000     0.452710000000     0.499080000000    -0.400654   
O53      O      0.013820000000     0.638380000000     0.542340000000    -0.483373   
O54      O      0.913110000000     0.503670000000     0.606570000000    -0.392626   
O55      O      0.994470000000     0.531880000000     0.463300000000    -0.436382   
O56      O      0.939800000000     0.571400000000     0.572770000000    -0.475823   
O57      O      0.016340000000     0.481630000000     0.475440000000    -0.368662   
O58      O      0.003650000000     0.606020000000     0.484490000000    -0.459359   
O59      O      0.895910000000     0.439610000000     0.557140000000    -0.448224   
O60      O      0.047990000000     0.492290000000     0.555810000000    -0.41725    
O61      O      0.993510000000     0.563530000000     0.635060000000    -0.462884   
O62      O      0.972930000000     0.426120000000     0.585340000000    -0.409236   
O63      O      0.087490000000     0.627840000000     0.531780000000    -0.450635   
O64      O      0.069210000000     0.618520000000     0.595300000000    -0.474546   
O65      O      0.977430000000     0.413630000000     0.521910000000    -0.39597    
O66      O      0.081990000000     0.550450000000     0.511080000000    -0.427184   
O67      O      0.999830000000     0.500810000000     0.632880000000    -0.417617   
O68      O      0.994480000000     0.534630000000     0.547610000000    -0.525179   
O69      O      0.458230000000     0.067640000000     0.053960000000    -0.399994   
O70      O      0.615230000000     0.000960000000     0.007400000000    -0.426179   
O71      O      0.523100000000     0.035240000000     0.948070000000    -0.40851    
O72      O      0.485000000000     0.956580000000     0.074770000000    -0.456915   
O73      O      0.598160000000     0.051810000000     0.953700000000    -0.421551   
O74      O      0.457230000000     0.989690000000     0.031420000000    -0.399974   
O75      O      0.543600000000     0.951370000000     0.028780000000    -0.447525   
O76      O      0.468950000000     0.059690000000     0.990250000000    -0.422906   
O77      O      0.500260000000     0.036130000000     0.104840000000    -0.402989   
O78      O      0.639680000000     0.129330000000     0.011080000000    -0.449795   
O79      O      0.552560000000     0.142890000000     0.010440000000    -0.42888    
O80      O      0.619810000000     0.007750000000     0.081550000000    -0.434515   
O81      O      0.653610000000     0.080850000000     0.062190000000    -0.437455   
O82      O      0.551250000000     0.115520000000     0.070690000000    -0.418274   
O83      O      0.559980000000     0.023790000000     0.120190000000    -0.442192   
O84      O      0.599560000000     0.127870000000     0.956860000000    -0.398592   
O85      O      0.558570000000     0.046650000000     0.032770000000    -0.545467   
O86      O      0.412360000000     0.998690000000     0.557230000000    -0.442356   
O87      O      0.564770000000     0.970820000000     0.484540000000    -0.454468   
O88      O      0.500080000000     0.061400000000     0.453900000000    -0.386684   
O89      O      0.446980000000     0.920700000000     0.561310000000    -0.457841   
O90      O      0.525890000000     0.012250000000     0.444980000000    -0.462017   
O91      O      0.445590000000     0.960840000000     0.610310000000    -0.399598   
O92      O      0.496940000000     0.919300000000     0.508530000000    -0.437481   
O93      O      0.427870000000     0.001970000000     0.494900000000    -0.411337   
O94      O      0.532760000000     0.048300000000     0.612360000000    -0.411652   
O95      O      0.587450000000     0.095920000000     0.480800000000    -0.461877   
O96      O      0.466010000000     0.093940000000     0.504590000000    -0.402849   
O97      O      0.581360000000     0.976560000000     0.557300000000    -0.438013   
O98      O      0.611740000000     0.049540000000     0.534500000000    -0.453217   
O99      O      0.487170000000     0.089950000000     0.568770000000    -0.412241   
O100     O      0.529190000000     0.978770000000     0.613110000000    -0.424336   
O101     O      0.553320000000     0.109460000000     0.527440000000    -0.402972   
O102     O      0.511170000000     0.010200000000     0.530630000000    -0.548564   
O103     O      0.508310000000     0.418560000000     0.004760000000    -0.374988   
O104     O      0.516000000000     0.607980000000     0.025010000000    -0.452563   
O105     O      0.428460000000     0.487030000000     0.026720000000    -0.45498    
O106     O      0.583300000000     0.572020000000     0.957680000000    -0.449853   
O107     O      0.453190000000     0.542620000000     0.070670000000    -0.443469   
O108     O      0.539250000000     0.494950000000     0.955360000000    -0.412373   
O109     O      0.588110000000     0.631310000000     0.006930000000    -0.401791   
O110     O      0.458390000000     0.441340000000     0.995920000000    -0.431384   
O111     O      0.595280000000     0.464110000000     0.991150000000    -0.375797   
O112     O      0.528960000000     0.545080000000     0.116960000000    -0.467368   
O113     O      0.497820000000     0.428750000000     0.074290000000    -0.419836   
O114     O      0.621070000000     0.583040000000     0.066900000000    -0.432018   
O115     O      0.590280000000     0.624000000000     0.080270000000    -0.425233   
O116     O      0.573970000000     0.475470000000     0.064750000000    -0.402799   
O117     O      0.630700000000     0.537910000000     0.011060000000    -0.472183   
O118     O      0.463340000000     0.476720000000     0.105560000000    -0.430456   
O119     O      0.528690000000     0.524340000000     0.033290000000    -0.516512   
O120     O      0.426680000000     0.474740000000     0.487680000000    -0.384663   
O121     O      0.490820000000     0.604090000000     0.502080000000    -0.445825   
O122     O      0.411370000000     0.504320000000     0.598400000000    -0.438846   
O123     O      0.515150000000     0.539790000000     0.452850000000    -0.414747   
O124     O      0.427230000000     0.559290000000     0.551660000000    -0.470535   
O125     O      0.491230000000     0.463100000000     0.453560000000    -0.371584   
O126     O      0.563420000000     0.623080000000     0.491000000000    -0.369272   
O127     O      0.404880000000     0.440950000000     0.548410000000    -0.432931   
O128     O      0.559490000000     0.501170000000     0.512300000000    -0.419823   
O129     O      0.494020000000     0.582070000000     0.616750000000    -0.442002   
O130     O      0.491360000000     0.449290000000     0.584860000000    -0.435898   
O131     O      0.592270000000     0.585360000000     0.556700000000    -0.382347   
O132     O      0.561680000000     0.630750000000     0.565810000000    -0.440047   
O133     O      0.470190000000     0.430070000000     0.522410000000    -0.405605   
O134     O      0.605010000000     0.571510000000     0.482430000000    -0.354053   
O135     O      0.499550000000     0.517360000000     0.626760000000    -0.464408   
O136     O      0.493840000000     0.531490000000     0.544630000000    -0.586887   


