data_structure

_audit_creation_method RASPA-1.0
_audit_creation_date 2023-6-4
_audit_author_name 'Poobodin Mano'

_cell_length_a    23.3318
_cell_length_b    24.2618
_cell_length_c    24.2959
_cell_angle_alpha 87.1344
_cell_angle_beta  93.8195
_cell_angle_gamma 120.436
_cell_volume      11829.5

_symmetry_cell_setting          triclinic
_symmetry_space_group_name_Hall 'P 1'
_symmetry_space_group_name_H-M  'P 1'
_symmetry_Int_Tables_number     1

_symmetry_equiv_pos_as_xyz 'x,y,z'

loop_
_atom_site_label
_atom_site_type_symbol
_atom_site_fract_x
_atom_site_fract_y
_atom_site_fract_z
_atom_site_charge
C1       C      0.023940000000     0.159500000000     0.009220000000     0.444353   
C2       C      0.907250000000     0.894230000000     0.994880000000     0.44707    
C3       C      0.031880000000     0.013060000000     0.896810000000     0.466121   
C4       C      0.888350000000     0.973910000000     0.118390000000     0.400516   
C5       C      0.054110000000     0.025120000000     0.175500000000     0.485893   
C6       C      0.180800000000     0.036410000000     0.967010000000     0.480842   
C7       C      0.174880000000     0.184380000000     0.049770000000     0.463633   
C8       C      0.023480000000     0.876750000000     0.082140000000     0.408499   
C9       C      0.051120000000     0.038440000000     0.399350000000     0.490983   
C10      C      0.068190000000     0.180940000000     0.582360000000     0.465498   
C11      C      0.905250000000     0.004350000000     0.494850000000     0.408934   
C12      C      0.211860000000     0.171250000000     0.497150000000     0.475285   
C13      C      0.206010000000     0.037870000000     0.571340000000     0.467166   
C14      C      0.943700000000     0.911560000000     0.593530000000     0.44534    
C15      C      0.009710000000     0.887490000000     0.458650000000     0.405014   
C16      C      0.060380000000     0.055480000000     0.674070000000     0.479586   
C17      C      0.899680000000     0.371110000000     0.011670000000     0.479128   
C18      C      0.056270000000     0.673130000000     0.022710000000     0.416242   
C19      C      0.870980000000     0.490450000000     0.094920000000     0.497442   
C20      C      0.044300000000     0.532800000000     0.922530000000     0.488824   
C21      C      0.197760000000     0.575230000000     0.016510000000     0.394128   
C22      C      0.004100000000     0.506790000000     0.197540000000     0.475951   
C23      C      0.030620000000     0.374860000000     0.090710000000     0.467285   
C24      C      0.149640000000     0.648120000000     0.125180000000     0.443089   
C25      C      0.903340000000     0.406580000000     0.536270000000     0.376275   
C26      C      0.053530000000     0.693850000000     0.512140000000     0.515861   
C27      C      0.920490000000     0.544450000000     0.583750000000     0.467421   
C28      C      0.064800000000     0.541350000000     0.422330000000     0.475736   
C29      C      0.185290000000     0.544140000000     0.527990000000     0.497642   
C30      C      0.039450000000     0.546470000000     0.693370000000     0.435233   
C31      C      0.034020000000     0.389720000000     0.570700000000     0.365239   
C32      C      0.191560000000     0.711460000000     0.589340000000     0.520544   
C33      C      0.407640000000     0.031630000000     0.968130000000     0.466244   
C34      C      0.531500000000     0.869830000000     0.000070000000     0.565528   
C35      C      0.562160000000     0.057140000000     0.897540000000     0.461387   
C36      C      0.382160000000     0.882660000000     0.096770000000     0.458853   
C37      C      0.510910000000     0.010610000000     0.174220000000     0.519164   
C38      C      0.673790000000     0.136380000000     0.006720000000     0.467403   
C39      C      0.465810000000     0.121420000000     0.078050000000     0.38752    
C40      C      0.657750000000     0.982900000000     0.083650000000     0.490548   
C41      C      0.434440000000     0.052520000000     0.501780000000     0.432688   
C42      C      0.591700000000     0.924990000000     0.492610000000     0.446552   
C43      C      0.557550000000     0.051060000000     0.397290000000     0.513207   
C44      C      0.425320000000     0.937440000000     0.614880000000     0.378846   
C45      C      0.585750000000     0.047240000000     0.677120000000     0.508484   
C46      C      0.667650000000     0.205610000000     0.462930000000     0.380904   
C47      C      0.558980000000     0.166840000000     0.588010000000     0.447011   
C48      C      0.713340000000     0.047390000000     0.566040000000     0.464955   
C49      C      0.375840000000     0.421010000000     0.018390000000     0.489335   
C50      C      0.573870000000     0.671940000000     0.968880000000     0.459208   
C51      C      0.413790000000     0.552060000000     0.088530000000     0.446613   
C52      C      0.554760000000     0.513740000000     0.910040000000     0.504102   
C53      C      0.639470000000     0.482460000000     0.031870000000     0.502533   
C54      C      0.555510000000     0.564820000000     0.176580000000     0.440115   
C55      C      0.465920000000     0.349690000000     0.063530000000     0.387615   
C56      C      0.686870000000     0.674600000000     0.071080000000     0.446922   
C57      C      0.430440000000     0.392770000000     0.475920000000     0.553995   
C58      C      0.617800000000     0.710370000000     0.493120000000     0.387346   
C59      C      0.416180000000     0.534540000000     0.568920000000     0.544039   
C60      C      0.581650000000     0.566330000000     0.404370000000     0.475671   
C61      C      0.703270000000     0.555930000000     0.500800000000     0.488449   
C62      C      0.527700000000     0.529410000000     0.681710000000     0.54143    
C63      C      0.538960000000     0.380260000000     0.580420000000     0.551607   
C64      C      0.703230000000     0.681700000000     0.599560000000     0.455796   
C65      C      0.581420000000     0.570700000000     0.824980000000     0.0377731  
C66      C      0.507420000000     0.459580000000     0.824610000000     0.0247369  
C67      C      0.573440000000     0.574690000000     0.768280000000     0.0307132  
C68      C      0.498360000000     0.462930000000     0.766740000000     0.068385   
C69      C      0.558360000000     0.610490000000     0.319640000000     0.034953   
C70      C      0.611830000000     0.550510000000     0.318150000000     0.0271857  
C71      C      0.553770000000     0.611000000000     0.261100000000     0.0321096  
C72      C      0.608560000000     0.551680000000     0.260440000000     0.0642335  
C73      C      0.544770000000     0.812660000000     0.484730000000     0.0307496  
C74      C      0.659070000000     0.879950000000     0.472630000000     0.0253845  
C75      C      0.552620000000     0.759590000000     0.481150000000     0.0269916  
C76      C      0.668140000000     0.826180000000     0.472670000000     0.0508857  
C77      C      0.611830000000     0.279780000000     0.583610000000     0.0334234  
C78      C      0.507720000000     0.220540000000     0.623570000000     0.0178467  
C79      C      0.605500000000     0.333710000000     0.581230000000     0.0389407  
C80      C      0.501830000000     0.275630000000     0.623140000000     0.0703662  
C81      C      0.581050000000     0.103940000000     0.752500000000     0.0372458  
C82      C      0.616410000000     0.028970000000     0.768430000000     0.0202089  
C83      C      0.575720000000     0.106550000000     0.809330000000     0.0345489  
C84      C      0.609190000000     0.029730000000     0.825260000000     0.0788493  
C85      C      0.514240000000     0.067790000000     0.253230000000     0.0372293  
C86      C      0.521050000000     0.974090000000     0.264230000000     0.0272065  
C87      C      0.521780000000     0.074870000000     0.310670000000     0.0346914  
C88      C      0.529930000000     0.981440000000     0.321210000000     0.0675982  
C89      C      0.581900000000     0.769030000000     0.936020000000     0.0331044  
C90      C      0.546370000000     0.728880000000     0.025340000000     0.0491209  
C91      C      0.564430000000     0.815640000000     0.942520000000     0.0344721  
C92      C      0.526780000000     0.772830000000     0.031730000000     0.0591911  
C93      C      0.516530000000     0.231920000000     0.058080000000     0.0325508  
C94      C      0.414110000000     0.181740000000     0.101290000000     0.0227936  
C95      C      0.516270000000     0.289020000000     0.054220000000     0.0363224  
C96      C      0.415650000000     0.241200000000     0.100520000000     0.062732   
C97      C      0.750470000000     0.257670000000     0.530530000000     0.0365035  
C98      C      0.747510000000     0.316440000000     0.450940000000     0.0210741  
C99      C      0.808630000000     0.308930000000     0.549420000000     0.0291309  
C100     C      0.809990000000     0.368170000000     0.468210000000     0.064466   
C101     C      0.312550000000     0.870590000000     0.638190000000     0.0293167  
C102     C      0.359570000000     0.842040000000     0.569590000000     0.016352   
C103     C      0.253270000000     0.812520000000     0.631080000000     0.0382495  
C104     C      0.299500000000     0.787650000000     0.558550000000     0.0759618  
C105     C      0.819130000000     0.538880000000     0.596350000000     0.0299596  
C106     C      0.867930000000     0.572540000000     0.509920000000     0.0260689  
C107     C      0.763520000000     0.540080000000     0.573870000000     0.0421327  
C108     C      0.815820000000     0.582040000000     0.489180000000     0.0623917  
C109     C      0.240240000000     0.485290000000     0.547100000000     0.0359881  
C110     C      0.302210000000     0.597530000000     0.538300000000     0.0256395  
C111     C      0.298930000000     0.483730000000     0.556990000000     0.0338389  
C112     C      0.360720000000     0.597020000000     0.554130000000     0.0689721  
C113     C      0.076730000000     0.594820000000     0.781390000000     0.0323577  
C114     C      0.992430000000     0.486790000000     0.776350000000     0.0221091  
C115     C      0.074510000000     0.592320000000     0.838800000000     0.0326996  
C116     C      0.990110000000     0.483550000000     0.834470000000     0.0664976  
C117     C      0.049450000000     0.578260000000     0.333440000000     0.0343604  
C118     C      0.032160000000     0.474030000000     0.344770000000     0.024138   
C119     C      0.033560000000     0.568610000000     0.277290000000     0.0318225  
C120     C      0.016180000000     0.463640000000     0.288070000000     0.0651479  
C121     C      0.783440000000     0.307760000000     0.010150000000     0.0315042  
C122     C      0.844210000000     0.265950000000     0.973740000000     0.0243731  
C123     C      0.728120000000     0.247640000000     0.012570000000     0.0335911  
C124     C      0.786380000000     0.204560000000     0.972700000000     0.0643939  
C125     C      0.322830000000     0.769020000000     0.104660000000     0.0343774  
C126     C      0.271520000000     0.823750000000     0.133190000000     0.0213737  
C127     C      0.266280000000     0.710400000000     0.116030000000     0.0359213  
C128     C      0.213110000000     0.763850000000     0.144350000000     0.0674525  
C129     C      0.797530000000     0.492420000000     0.025800000000     0.0342807  
C130     C      0.754480000000     0.440850000000     0.110440000000     0.022687   
C131     C      0.738280000000     0.489120000000     0.009960000000     0.0320057  
C132     C      0.693570000000     0.438220000000     0.094940000000     0.0591547  
C133     C      0.314570000000     0.616610000000     0.023100000000     0.0276263  
C134     C      0.245780000000     0.531720000000     0.082030000000     0.0181041  
C135     C      0.368180000000     0.609600000000     0.042510000000     0.0344846  
C136     C      0.301110000000     0.528320000000     0.105460000000     0.0649451  
C137     C      0.830540000000     0.850740000000     0.621390000000     0.0354716  
C138     C      0.886330000000     0.797100000000     0.602190000000     0.0243382  
C139     C      0.769770000000     0.792260000000     0.622030000000     0.0325567  
C140     C      0.825900000000     0.737880000000     0.605590000000     0.0672963  
C141     C      0.259400000000     0.281940000000     0.478630000000     0.0317874  
C142     C      0.311440000000     0.228710000000     0.446900000000     0.0210487  
C143     C      0.315590000000     0.340440000000     0.468170000000     0.0388143  
C144     C      0.369320000000     0.288250000000     0.436990000000     0.0657145  
C145     C      0.801130000000     0.074630000000     0.505850000000     0.032957   
C146     C      0.772440000000     0.992670000000     0.573260000000     0.0223181  
C147     C      0.846100000000     0.059270000000     0.485890000000     0.024109   
C148     C      0.831160000000     0.994330000000     0.564710000000     0.0688486  
C149     C      0.374330000000     0.102160000000     0.525800000000     0.0359283  
C150     C      0.321010000000     0.989770000000     0.523930000000     0.027013   
C151     C      0.319260000000     0.097560000000     0.549540000000     0.0355605  
C152     C      0.264130000000     0.984590000000     0.545640000000     0.0603011  
C153     C      0.963810000000     0.777880000000     0.476960000000     0.0346386  
C154     C      0.068620000000     0.836410000000     0.438070000000     0.023448   
C155     C      0.978820000000     0.731580000000     0.495450000000     0.0334081  
C156     C      0.081730000000     0.786990000000     0.451970000000     0.06921    
C157     C      0.010380000000     0.233550000000     0.551770000000     0.0337408  
C158     C      0.091230000000     0.278860000000     0.624650000000     0.0228056  
C159     C      0.001070000000     0.285310000000     0.550410000000     0.0305755  
C160     C      0.081090000000     0.332040000000     0.624090000000     0.0597317  
C161     C      0.056780000000     0.988210000000     0.811690000000     0.0352005  
C162     C      0.004520000000     0.049710000000     0.813170000000     0.0199789  
C163     C      0.068400000000     0.003690000000     0.756020000000     0.0316966  
C164     C      0.014370000000     0.064340000000     0.757100000000     0.0665714  
C165     C      0.009050000000     0.978460000000     0.261300000000     0.0339958  
C166     C      0.101260000000     0.083390000000     0.257580000000     0.0235293  
C167     C      0.002050000000     0.986450000000     0.316260000000     0.0333406  
C168     C      0.096220000000     0.090970000000     0.313450000000     0.0683837  
C169     C      0.745430000000     0.786950000000     0.051690000000     0.0427977  
C170     C      0.790190000000     0.724670000000     0.026350000000     0.0181563  
C171     C      0.797180000000     0.840530000000     0.026230000000     0.0384595  
C172     C      0.840870000000     0.777920000000     0.998740000000     0.0704783  
C173     C      0.304870000000     0.323040000000     0.976650000000     0.0339542  
C174     C      0.265500000000     0.361410000000     0.042780000000     0.025572   
C175     C      0.258840000000     0.260550000000     0.992520000000     0.0307866  
C176     C      0.220470000000     0.298990000000     0.060650000000     0.0650837  
C177     C      0.770680000000     0.926040000000     0.132200000000     0.0257811  
C178     C      0.833140000000     0.033040000000     0.101850000000     0.01976    
C179     C      0.712160000000     0.929870000000     0.124680000000     0.0374544  
C180     C      0.775800000000     0.037680000000     0.095570000000     0.0703849  
C181     C      0.291810000000     0.088320000000     0.936700000000     0.0374581  
C182     C      0.232310000000     0.976640000000     0.951380000000     0.0295853  
C183     C      0.351060000000     0.086530000000     0.935790000000     0.0338462  
C184     C      0.290490000000     0.974330000000     0.945960000000     0.0668892  
C185     C      0.979770000000     0.763920000000     0.068860000000     0.029508   
C186     C      0.092930000000     0.836650000000     0.057290000000     0.0082238  
C187     C      0.989000000000     0.714440000000     0.051160000000     0.0206782  
C188     C      0.102640000000     0.787410000000     0.039410000000     0.0593605  
C189     C      0.065850000000     0.326800000000     0.026490000000     0.0357086  
C190     C      0.998240000000     0.265240000000     0.098560000000     0.0195345  
C191     C      0.061560000000     0.271610000000     0.005200000000     0.0273613  
C192     C      0.001890000000     0.212280000000     0.082100000000     0.0776879  
Co1      Co     0.034260000000     0.089050000000     0.086800000000     1.03253    
Co2      Co     0.057480000000     0.955000000000     0.000180000000     1.08371    
Co3      Co     0.103510000000     0.101090000000     0.972960000000     1.05995    
Co4      Co     0.967520000000     0.960820000000     0.080990000000     1.03159    
Co5      Co     0.128050000000     0.029810000000     0.486670000000     1.04374    
Co6      Co     0.994170000000     0.055630000000     0.566280000000     1.1042     
Co7      Co     0.997310000000     0.961060000000     0.498260000000     1.02958    
Co8      Co     0.145310000000     0.117150000000     0.593490000000     1.07385    
Co9      Co     0.048870000000     0.458100000000     0.013810000000     1.05521    
Co10     Co     0.002590000000     0.582130000000     0.094450000000     1.10001    
Co11     Co     0.947770000000     0.432980000000     0.108530000000     1.10445    
Co12     Co     0.110870000000     0.587490000000     0.028700000000     1.01377    
Co13     Co     0.044160000000     0.481110000000     0.530870000000     0.817469   
Co14     Co     0.050260000000     0.628880000000     0.611230000000     1.14832    
Co15     Co     0.995530000000     0.485010000000     0.580170000000     0.756381   
Co16     Co     0.135820000000     0.631180000000     0.504180000000     1.22828    
Co17     Co     0.459680000000     0.021720000000     0.067580000000     0.993784   
Co18     Co     0.590060000000     0.997080000000     0.977590000000     1.1203     
Co19     Co     0.546080000000     0.102190000000     0.003060000000     0.950306   
Co20     Co     0.520460000000     0.930660000000     0.094840000000     1.26676    
Co21     Co     0.500380000000     0.030440000000     0.582230000000     1.12999    
Co22     Co     0.651040000000     0.067240000000     0.483080000000     1.07813    
Co23     Co     0.577590000000     0.123340000000     0.494050000000     1.1097     
Co24     Co     0.570180000000     0.970340000000     0.586370000000     1.01911    
Co25     Co     0.503370000000     0.450880000000     0.019580000000     1.09218    
Co26     Co     0.535390000000     0.611020000000     0.061790000000     1.13339    
Co27     Co     0.468980000000     0.471050000000     0.108850000000     0.918426   
Co28     Co     0.630050000000     0.592050000000     0.995560000000     1.16155    
Co29     Co     0.571460000000     0.469580000000     0.485670000000     1.24434    
Co30     Co     0.561090000000     0.617280000000     0.583180000000     0.979538   
Co31     Co     0.470060000000     0.449000000000     0.586320000000     1.29693    
Co32     Co     0.626040000000     0.615790000000     0.509370000000     0.896495   
H1       H      0.601620000000     0.621590000000     0.748920000000     0.0401247  
H2       H      0.615250000000     0.615260000000     0.845500000000     0.0403224  
H3       H      0.480310000000     0.414020000000     0.846490000000     0.0465947  
H4       H      0.528600000000     0.633970000000     0.240260000000     0.038882   
H5       H      0.537650000000     0.633750000000     0.341510000000     0.0398738  
H6       H      0.637820000000     0.528230000000     0.339150000000     0.0451598  
H7       H      0.507610000000     0.713250000000     0.481160000000     0.0473395  
H8       H      0.495120000000     0.804590000000     0.489240000000     0.0360279  
H9       H      0.702210000000     0.927450000000     0.468330000000     0.0459872  
H10      H      0.645400000000     0.377280000000     0.563500000000     0.0397635  
H11      H      0.656100000000     0.284130000000     0.567500000000     0.0452107  
H12      H      0.467810000000     0.175670000000     0.639540000000     0.0490638  
H13      H      0.558490000000     0.137140000000     0.823500000000     0.0366991  
H14      H      0.568230000000     0.133170000000     0.725100000000     0.0441673  
H15      H      0.633610000000     0.998630000000     0.753420000000     0.0459451  
H16      H      0.523320000000     0.116310000000     0.327280000000     0.0449567  
H17      H      0.508220000000     0.102680000000     0.227750000000     0.0443468  
H18      H      0.519060000000     0.932410000000     0.247450000000     0.0421481  
H19      H      0.573910000000     0.850190000000     0.909210000000     0.0371064  
H20      H      0.600900000000     0.766480000000     0.897250000000     0.0286557  
H21      H      0.537710000000     0.694870000000     0.058670000000    -0.0498228  
H22      H      0.556590000000     0.329280000000     0.033350000000     0.0412554  
H23      H      0.557660000000     0.231610000000     0.040030000000     0.029537   
H24      H      0.372670000000     0.139460000000     0.119020000000     0.0515156  
H25      H      0.830050000000     0.302360000000     0.588520000000     0.0483832  
H26      H      0.729650000000     0.214680000000     0.556280000000     0.0531429  
H27      H      0.722890000000     0.319270000000     0.412240000000     0.0396011  
H28      H      0.212750000000     0.801670000000     0.657180000000     0.0368207  
H29      H      0.316310000000     0.903600000000     0.668640000000     0.0440966  
H30      H      0.400110000000     0.854240000000     0.542760000000     0.0526225  
H31      H      0.721840000000     0.524100000000     0.600180000000     0.0429977  
H32      H      0.818840000000     0.521810000000     0.638550000000     0.0356901  
H33      H      0.908040000000     0.582900000000     0.483340000000     0.047855   
H34      H      0.294400000000     0.437100000000     0.562880000000     0.0362612  
H35      H      0.193300000000     0.440380000000     0.546040000000     0.0406384  
H36      H      0.303990000000     0.643030000000     0.532610000000     0.0452011  
H37      H      0.109040000000     0.635330000000     0.861060000000     0.0456434  
H38      H      0.111740000000     0.640290000000     0.762740000000     0.0421998  
H39      H      0.958180000000     0.444990000000     0.752420000000     0.0505337  
H40      H      0.035680000000     0.608260000000     0.252910000000     0.0392511  
H41      H      0.062140000000     0.624290000000     0.349330000000     0.0413462  
H42      H      0.030610000000     0.435690000000     0.371000000000     0.0527535  
H43      H      0.683760000000     0.244540000000     0.027590000000     0.0335205  
H44      H      0.778700000000     0.347060000000     0.024050000000     0.0418599  
H45      H      0.890410000000     0.272510000000     0.959340000000     0.0429995  
H46      H      0.268580000000     0.667850000000     0.109160000000     0.0450158  
H47      H      0.364320000000     0.767110000000     0.089490000000     0.0419178  
H48      H      0.273150000000     0.867980000000     0.141990000000     0.047536   
H49      H      0.734760000000     0.507730000000     0.969060000000     0.0381597  
H50      H      0.836630000000     0.513440000000     0.996460000000     0.0485849  
H51      H      0.760990000000     0.422390000000     0.150590000000     0.0395233  
H52      H      0.414790000000     0.640060000000     0.023220000000     0.0353566  
H53      H      0.322360000000     0.652380000000     0.991250000000     0.0434099  
H54      H      0.197570000000     0.501030000000     0.099120000000     0.0610721  
H55      H      0.725450000000     0.794220000000     0.629180000000     0.0394781  
H56      H      0.829230000000     0.893380000000     0.629130000000     0.0385874  
H57      H      0.932070000000     0.797280000000     0.595660000000     0.0442974  
H58      H      0.315620000000     0.383360000000     0.479000000000     0.0333439  
H59      H      0.217470000000     0.282100000000     0.495300000000     0.0426229  
H60      H      0.310880000000     0.184830000000     0.438680000000     0.0419693  
H61      H      0.871890000000     0.083430000000     0.448840000000     0.0376203  
H62      H      0.794130000000     0.111130000000     0.484210000000     0.0193408  
H63      H      0.744700000000     0.966160000000     0.609090000000     0.0414581  
H64      H      0.321420000000     0.142000000000     0.558260000000     0.0390219  
H65      H      0.416790000000     0.149560000000     0.519400000000     0.0452878  
H66      H      0.321410000000     0.946360000000     0.515550000000     0.0447406  
H67      H      0.943170000000     0.694010000000     0.521330000000     0.0406812  
H68      H      0.917460000000     0.772970000000     0.488990000000     0.0489332  
H69      H      0.105600000000     0.879260000000     0.417010000000     0.0385847  
H70      H      0.964040000000     0.284590000000     0.520350000000     0.0449903  
H71      H      0.979870000000     0.195980000000     0.522660000000     0.0423245  
H72      H      0.127330000000     0.276940000000     0.654070000000     0.0396664  
H73      H      0.093410000000     0.984000000000     0.734940000000     0.0413395  
H74      H      0.075560000000     0.959250000000     0.831950000000     0.0374465  
H75      H      0.980440000000     0.069570000000     0.835550000000     0.0476083  
H76      H      0.963080000000     0.945900000000     0.337940000000     0.0476962  
H77      H      0.972660000000     0.933750000000     0.242240000000     0.0488153  
H78      H      0.139360000000     0.123340000000     0.234510000000     0.0480803  
H79      H      0.797220000000     0.885150000000     0.027490000000     0.0451771  
H80      H      0.707500000000     0.792520000000     0.069910000000     0.0373641  
H81      H      0.787260000000     0.678760000000     0.023370000000     0.0328424  
H82      H      0.258260000000     0.222790000000     0.969980000000     0.0343923  
H83      H      0.340190000000     0.330130000000     0.946290000000     0.0449386  
H84      H      0.269610000000     0.401410000000     0.064390000000     0.0414144  
H85      H      0.664630000000     0.887150000000     0.131830000000     0.0276754  
H86      H      0.766490000000     0.881100000000     0.146260000000     0.0413493  
H87      H      0.878620000000     0.073750000000     0.088780000000     0.0549276  
H88      H      0.397290000000     0.131700000000     0.932530000000     0.0400379  
H89      H      0.294310000000     0.134230000000     0.933390000000     0.0342213  
H90      H      0.185290000000     0.932310000000     0.955990000000     0.026401   
H91      H      0.945410000000     0.666940000000     0.050070000000     0.0331836  
H92      H      0.930520000000     0.752240000000     0.079780000000     0.0392561  
H93      H      0.135690000000     0.884830000000     0.058850000000     0.0489638  
H94      H      0.085750000000     0.276540000000     0.967180000000     0.0368806  
H95      H      0.093440000000     0.371730000000     0.004080000000     0.014265   
H96      H      0.974590000000     0.262150000000     0.136630000000     0.0422529  
N1       N      0.548000000000     0.513510000000     0.853460000000    -0.189456   
N2       N      0.532230000000     0.521600000000     0.738310000000    -0.201315   
N3       N      0.583860000000     0.576810000000     0.347880000000    -0.183362   
N4       N      0.574620000000     0.577760000000     0.231740000000    -0.182997   
N5       N      0.598250000000     0.872960000000     0.482510000000    -0.182746   
N6       N      0.614430000000     0.765300000000     0.480300000000    -0.169457   
N7       N      0.560480000000     0.222160000000     0.600240000000    -0.179337   
N8       N      0.549080000000     0.331010000000     0.597670000000    -0.206917   
N9       N      0.597160000000     0.061990000000     0.732110000000    -0.190654   
N10      N      0.583960000000     0.065430000000     0.844940000000    -0.192965   
N11      N      0.515910000000     0.018410000000     0.230200000000    -0.193239   
N12      N      0.533790000000     0.034130000000     0.344070000000    -0.198196   
N13      N      0.571600000000     0.725560000000     0.977410000000    -0.197531   
N14      N      0.538090000000     0.818320000000     0.990640000000    -0.209525   
N15      N      0.464830000000     0.177630000000     0.080100000000    -0.16869    
N16      N      0.466770000000     0.294310000000     0.075670000000    -0.170982   
N17      N      0.720780000000     0.260880000000     0.481100000000    -0.168092   
N18      N      0.840770000000     0.362750000000     0.517360000000    -0.170474   
N19      N      0.365890000000     0.882960000000     0.609170000000    -0.166238   
N20      N      0.247760000000     0.770050000000     0.592900000000    -0.206465   
N21      N      0.870340000000     0.553960000000     0.563950000000    -0.185917   
N22      N      0.762800000000     0.564140000000     0.521410000000    -0.191403   
N23      N      0.242460000000     0.542060000000     0.536380000000    -0.189909   
N24      N      0.359670000000     0.539210000000     0.560190000000    -0.20335    
N25      N      0.036690000000     0.541890000000     0.750070000000    -0.176511   
N26      N      0.034020000000     0.536270000000     0.866000000000    -0.191433   
N27      N      0.049000000000     0.531160000000     0.367060000000    -0.185642   
N28      N      0.017570000000     0.512000000000     0.253820000000    -0.18963    
N29      N      0.843020000000     0.315960000000     0.996090000000    -0.188193   
N30      N      0.729800000000     0.194880000000     0.997300000000    -0.189929   
N31      N      0.325190000000     0.826100000000     0.110910000000    -0.179653   
N32      N      0.208880000000     0.706660000000     0.131140000000    -0.181889   
N33      N      0.807290000000     0.472810000000     0.077440000000    -0.192193   
N34      N      0.688190000000     0.467520000000     0.045830000000    -0.195686   
N35      N      0.252660000000     0.574600000000     0.039890000000    -0.167395   
N36      N      0.361690000000     0.563980000000     0.081990000000    -0.189618   
N37      N      0.888100000000     0.853800000000     0.607360000000    -0.176519   
N38      N      0.765920000000     0.735580000000     0.610280000000    -0.183389   
N39      N      0.259900000000     0.226420000000     0.472970000000    -0.185915   
N40      N      0.372790000000     0.343440000000     0.453740000000    -0.207466   
N41      N      0.763280000000     0.039760000000     0.549220000000    -0.190692   
N42      N      0.857150000000     0.014540000000     0.513390000000    -0.194388   
N43      N      0.375920000000     0.048320000000     0.514500000000    -0.177544   
N44      N      0.263190000000     0.039250000000     0.557950000000    -0.193316   
N45      N      0.011880000000     0.833030000000     0.454080000000    -0.171238   
N46      N      0.038590000000     0.736670000000     0.485310000000    -0.199424   
N47      N      0.057460000000     0.231250000000     0.586890000000    -0.186663   
N48      N      0.038140000000     0.336110000000     0.584250000000    -0.166191   
N49      N      0.028210000000     0.014240000000     0.840540000000    -0.186782   
N50      N      0.047930000000     0.041960000000     0.728780000000    -0.193163   
N51      N      0.057710000000     0.027350000000     0.231760000000    -0.187741   
N52      N      0.047110000000     0.041280000000     0.343030000000    -0.19377    
N53      N      0.742470000000     0.729150000000     0.052850000000    -0.182125   
N54      N      0.848000000000     0.837650000000     0.003440000000    -0.18441    
N55      N      0.312770000000     0.372590000000     0.006370000000    -0.188829   
N56      N      0.218490000000     0.247720000000     0.036220000000    -0.189663   
N57      N      0.831060000000     0.977370000000     0.119190000000    -0.16729    
N58      N      0.714860000000     0.984840000000     0.104120000000    -0.195833   
N59      N      0.234340000000     0.034130000000     0.950200000000    -0.189404   
N60      N      0.350770000000     0.030150000000     0.946570000000    -0.187819   
N61      N      0.031400000000     0.825450000000     0.070840000000    -0.179427   
N62      N      0.050370000000     0.725230000000     0.036730000000    -0.183873   
N63      N      0.031960000000     0.322800000000     0.072020000000    -0.189798   
N64      N      0.027950000000     0.213300000000     0.031820000000    -0.189889   
O1       O      0.988620000000     0.105450000000     0.029650000000    -0.444463   
O2       O      0.960460000000     0.893200000000     0.989740000000    -0.426825   
O3       O      0.033220000000     0.058160000000     0.921750000000    -0.453319   
O4       O      0.887300000000     0.920600000000     0.119500000000    -0.377674   
O5       O      0.049250000000     0.976780000000     0.923140000000    -0.444029   
O6       O      0.943090000000     0.024170000000     0.106070000000    -0.491627   
O7       O      0.915380000000     0.944580000000     0.014400000000    -0.428062   
O8       O      0.071310000000     0.164280000000     0.982890000000    -0.401689   
O9       O      0.076520000000     0.076510000000     0.148460000000    -0.463827   
O10      O      0.148440000000     0.000540000000     0.005500000000    -0.458625   
O11      O      0.174730000000     0.142180000000     0.022490000000    -0.455804   
O12      O      0.967460000000     0.873330000000     0.085120000000    -0.346368   
O13      O      0.069160000000     0.931600000000     0.071920000000    -0.436455   
O14      O      0.122400000000     0.167930000000     0.074960000000    -0.407613   
O15      O      0.013830000000     0.974060000000     0.151210000000    -0.428845   
O16      O      0.160360000000     0.071270000000     0.943480000000    -0.424544   
O17      O      0.050270000000     0.027040000000     0.035480000000    -0.512972   
O18      O      0.107370000000     0.059710000000     0.422720000000    -0.473084   
O19      O      0.036330000000     0.140460000000     0.546240000000    -0.457225   
O20      O      0.904210000000     0.952070000000     0.501490000000    -0.354314   
O21      O      0.179650000000     0.175140000000     0.534770000000    -0.455182   
O22      O      0.962310000000     0.050240000000     0.493910000000    -0.441271   
O23      O      0.205510000000     0.117350000000     0.488140000000    -0.42213    
O24      O      0.107180000000     0.171170000000     0.614260000000    -0.415544   
O25      O      0.001130000000     0.000180000000     0.426170000000    -0.416603   
O26      O      0.151990000000     0.997290000000     0.549300000000    -0.449717   
O27      O      0.941970000000     0.962870000000     0.592570000000    -0.416665   
O28      O      0.954610000000     0.885280000000     0.463940000000    -0.397715   
O29      O      0.111970000000     0.060920000000     0.654920000000    -0.45031    
O30      O      0.021310000000     0.065340000000     0.642440000000    -0.460251   
O31      O      0.064400000000     0.939730000000     0.468980000000    -0.490443   
O32      O      0.208470000000     0.088160000000     0.586450000000    -0.432654   
O33      O      0.988050000000     0.912850000000     0.565980000000    -0.410243   
O34      O      0.066600000000     0.047560000000     0.537850000000    -0.541574   
O35      O      0.957520000000     0.381810000000     0.002630000000    -0.417659   
O36      O      0.006920000000     0.618550000000     0.024980000000    -0.440885   
O37      O      0.885580000000     0.459790000000     0.130510000000    -0.438155   
O38      O      0.077780000000     0.581850000000     0.951650000000    -0.415053   
O39      O      0.917530000000     0.534530000000     0.070250000000    -0.488133   
O40      O      0.028720000000     0.480360000000     0.945250000000    -0.479101   
O41      O      0.111080000000     0.673230000000     0.025560000000    -0.356047   
O42      O      0.894500000000     0.405140000000     0.045710000000    -0.478373   
O43      O      0.141510000000     0.523470000000     0.017820000000    -0.501339   
O44      O      0.995050000000     0.548310000000     0.170150000000    -0.442513   
O45      O      0.976220000000     0.369080000000     0.102830000000    -0.425967   
O46      O      0.149640000000     0.601980000000     0.103170000000    -0.416722   
O47      O      0.094120000000     0.645930000000     0.122080000000    -0.426053   
O48      O      0.073310000000     0.429880000000     0.077120000000    -0.467977   
O49      O      0.198500000000     0.627930000000     0.004610000000    -0.376749   
O50      O      0.999600000000     0.460640000000     0.172400000000    -0.467843   
O51      O      0.020310000000     0.515960000000     0.060250000000    -0.518996   
O52      O      0.948370000000     0.445700000000     0.503850000000    -0.38038    
O53      O      0.021340000000     0.662530000000     0.553120000000    -0.483797   
O54      O      0.946270000000     0.525820000000     0.552550000000    -0.396985   
O55      O      0.082200000000     0.594920000000     0.441640000000    -0.482809   
O56      O      0.955050000000     0.571510000000     0.626140000000    -0.425396   
O57      O      0.063620000000     0.498040000000     0.454330000000    -0.383553   
O58      O      0.101170000000     0.687680000000     0.498400000000    -0.47798    
O59      O      0.919160000000     0.409520000000     0.587700000000    -0.368483   
O60      O      0.133980000000     0.503920000000     0.551260000000    -0.398466   
O61      O      0.079070000000     0.599610000000     0.671740000000    -0.457949   
O62      O      0.040400000000     0.431310000000     0.605820000000    -0.360821   
O63      O      0.191780000000     0.668520000000     0.563610000000    -0.502585   
O64      O      0.137820000000     0.701020000000     0.607880000000    -0.467009   
O65      O      0.026070000000     0.401260000000     0.520070000000    -0.367074   
O66      O      0.184320000000     0.588380000000     0.499410000000    -0.465743   
O67      O      0.997980000000     0.500970000000     0.661660000000    -0.343409   
O68      O      0.067850000000     0.569180000000     0.558090000000    -0.531113   
O69      O      0.403720000000     0.989710000000     0.002680000000    -0.421623   
O70      O      0.536850000000     0.909330000000     0.963230000000    -0.471783   
O71      O      0.575310000000     0.103610000000     0.927330000000    -0.407786   
O72      O      0.429640000000     0.879390000000     0.078730000000    -0.47309    
O73      O      0.537890000000     0.003740000000     0.920710000000    -0.456991   
O74      O      0.389910000000     0.938240000000     0.102380000000    -0.376296   
O75      O      0.530760000000     0.883840000000     0.048110000000    -0.562205   
O76      O      0.462920000000     0.082150000000     0.966750000000    -0.452039   
O77      O      0.508830000000     0.050050000000     0.140050000000    -0.40955    
O78      O      0.659410000000     0.087620000000     0.979420000000    -0.438158   
O79      O      0.520700000000     0.124440000000     0.068080000000    -0.455431   
O80      O      0.612530000000     0.972900000000     0.115420000000    -0.46864    
O81      O      0.648890000000     0.987320000000     0.031850000000    -0.453115   
O82      O      0.414600000000     0.065630000000     0.085730000000    -0.368402   
O83      O      0.508340000000     0.962330000000     0.156040000000    -0.530141   
O84      O      0.629830000000     0.133270000000     0.036100000000    -0.443122   
O85      O      0.526490000000     0.002680000000     0.035700000000    -0.515713   
O86      O      0.443990000000     0.006980000000     0.516720000000    -0.433236   
O87      O      0.638870000000     0.981050000000     0.482750000000    -0.418093   
O88      O      0.542430000000     0.083710000000     0.424440000000    -0.44903    
O89      O      0.476930000000     0.936370000000     0.600360000000    -0.493526   
O90      O      0.601650000000     0.040860000000     0.417670000000    -0.485726   
O91      O      0.428100000000     0.990460000000     0.623890000000    -0.405449   
O92      O      0.544540000000     0.918900000000     0.520660000000    -0.420866   
O93      O      0.486200000000     0.107300000000     0.494710000000    -0.394527   
O94      O      0.551260000000     0.063150000000     0.647390000000    -0.464957   
O95      O      0.672140000000     0.155270000000     0.472800000000    -0.509636   
O96      O      0.605310000000     0.168990000000     0.561950000000    -0.431962   
O97      O      0.661570000000     0.997180000000     0.581360000000    -0.435026   
O98      O      0.706500000000     0.092450000000     0.545800000000    -0.460905   
O99      O      0.505860000000     0.112970000000     0.591880000000    -0.394521   
O100     O      0.598110000000     0.008170000000     0.657350000000    -0.455461   
O101     O      0.609840000000     0.200640000000     0.456860000000    -0.392534   
O102     O      0.573040000000     0.048170000000     0.535780000000    -0.597469   
O103     O      0.421930000000     0.441710000000     0.985200000000    -0.415221   
O104     O      0.527180000000     0.621100000000     0.985780000000    -0.439364   
O105     O      0.425720000000     0.523470000000     0.128780000000    -0.375811   
O106     O      0.587280000000     0.566800000000     0.931940000000    -0.515713   
O107     O      0.448350000000     0.562980000000     0.049050000000    -0.482807   
O108     O      0.530300000000     0.463250000000     0.940700000000    -0.394036   
O109     O      0.628380000000     0.673490000000     0.975550000000    -0.414368   
O110     O      0.392990000000     0.428870000000     0.068180000000    -0.485976   
O111     O      0.583680000000     0.453930000000     0.052330000000    -0.43293    
O112     O      0.542400000000     0.601410000000     0.145080000000    -0.414839   
O113     O      0.480430000000     0.391710000000     0.101530000000    -0.392371   
O114     O      0.680290000000     0.621510000000     0.061440000000    -0.46291    
O115     O      0.632800000000     0.675100000000     0.073000000000    -0.425475   
O116     O      0.467630000000     0.366750000000     0.012900000000    -0.426112   
O117     O      0.651770000000     0.527830000000     0.998470000000    -0.478729   
O118     O      0.541810000000     0.511120000000     0.158610000000    -0.423782   
O119     O      0.539380000000     0.537050000000     0.041970000000    -0.575385   
O120     O      0.483770000000     0.421450000000     0.451100000000    -0.484276   
O121     O      0.566820000000     0.662150000000     0.513810000000    -0.448088   
O122     O      0.412750000000     0.481330000000     0.572520000000    -0.506297   
O123     O      0.570980000000     0.598160000000     0.437700000000    -0.387869   
O124     O      0.472230000000     0.583180000000     0.572910000000    -0.488823   
O125     O      0.593100000000     0.524080000000     0.424430000000    -0.490895   
O126     O      0.669200000000     0.704780000000     0.487020000000    -0.356473   
O127     O      0.431250000000     0.404880000000     0.525260000000    -0.558484   
O128     O      0.653090000000     0.504990000000     0.513660000000    -0.523482   
O129     O      0.555880000000     0.583950000000     0.658050000000    -0.445446   
O130     O      0.509970000000     0.399690000000     0.608540000000    -0.491466   
O131     O      0.694160000000     0.636380000000     0.571010000000    -0.397682   
O132     O      0.651160000000     0.682700000000     0.604760000000    -0.440819   
O133     O      0.557830000000     0.405600000000     0.534260000000    -0.52485    
O134     O      0.695910000000     0.601420000000     0.479550000000    -0.370105   
O135     O      0.496520000000     0.481800000000     0.652520000000    -0.550252   
O136     O      0.557980000000     0.528870000000     0.543810000000    -0.498359   
S1       S      0.445770000000     0.397390000000     0.737930000000     0.00597333 
S2       S      0.650030000000     0.527130000000     0.230330000000     0.0134079  
S3       S      0.741620000000     0.839350000000     0.467160000000     0.0422484  
S4       S      0.435520000000     0.268350000000     0.645240000000    -0.0113264  
S5       S      0.636030000000     0.992750000000     0.865210000000    -0.0440356  
S6       S      0.529750000000     0.924810000000     0.357770000000     0.00471654 
S7       S      0.486600000000     0.763600000000     0.085650000000    -0.0156226  
S8       S      0.355230000000     0.243520000000     0.124760000000     0.00312886 
S9       S      0.840370000000     0.432160000000     0.431610000000     0.0151223  
S10      S      0.291490000000     0.754740000000     0.500870000000    -0.0300839  
S11      S      0.816990000000     0.606930000000     0.427140000000    -0.00258497 
S12      S      0.423800000000     0.664370000000     0.570320000000    -0.00236879 
S13      S      0.932150000000     0.419380000000     0.860780000000     0.0111525  
S14      S      0.993290000000     0.393700000000     0.267430000000     0.0121842  
S15      S      0.790720000000     0.148780000000     0.944920000000     0.00567807 
S16      S      0.155330000000     0.765500000000     0.174230000000     0.00029754 
S17      S      0.636430000000     0.407050000000     0.138030000000     0.0214735  
S18      S      0.290010000000     0.480670000000     0.156400000000     0.00223501 
S19      S      0.831910000000     0.676190000000     0.612540000000     0.00200734 
S20      S      0.431760000000     0.288470000000     0.414050000000     0.000866265
S21      S      0.878800000000     0.023760000000     0.617950000000    -0.0572055  
S22      S      0.204430000000     0.914420000000     0.558960000000     0.00832494 
S23      S      0.150100000000     0.795980000000     0.432880000000    -0.00738983 
S24      S      0.124840000000     0.388080000000     0.666140000000     0.0156749  
S25      S      0.994650000000     0.114690000000     0.731290000000     0.00502954 
S26      S      0.144970000000     0.159360000000     0.339580000000     0.00985178 
S27      S      0.884150000000     0.765120000000     0.958680000000    -0.00697252 
S28      S      0.180240000000     0.291780000000     0.113650000000     0.00820475 
S29      S      0.784120000000     0.106230000000     0.082620000000    -0.00111142 
S30      S      0.284920000000     0.907730000000     0.934600000000     0.0158198  
S31      S      0.174350000000     0.807420000000     0.020040000000     0.0151317  
S32      S      0.994120000000     0.162760000000     0.130450000000    -0.0709542  


