data_structure

_audit_creation_method RASPA-1.0
_audit_creation_date 2023-5-19
_audit_author_name 'Poobodin Mano'

_cell_length_a    29.9285
_cell_length_b    29.8673
_cell_length_c    29.0998
_cell_angle_alpha 90
_cell_angle_beta  90
_cell_angle_gamma 90
_cell_volume      26011.8

_symmetry_cell_setting          triclinic
_symmetry_space_group_name_Hall 'P 1'
_symmetry_space_group_name_H-M  'P 1'
_symmetry_Int_Tables_number     1

_symmetry_equiv_pos_as_xyz 'x,y,z'

loop_
_atom_site_label
_atom_site_type_symbol
_atom_site_fract_x
_atom_site_fract_y
_atom_site_fract_z
_atom_site_charge
C1       C      0.438720000000     0.446370000000     0.097150000000     0.384575   
C2       C      0.096360000000     0.095570000000     0.098380000000     0.39992    
C3       C      0.085730000000     0.446770000000     0.105440000000     0.396568   
C4       C      0.446030000000     0.093070000000     0.104100000000     0.385101   
C5       C      0.435080000000     0.107120000000     0.481450000000     0.393379   
C6       C      0.101130000000     0.432030000000     0.485840000000     0.405862   
C7       C      0.445420000000     0.450920000000     0.460900000000     0.40639    
C8       C      0.099890000000     0.099740000000     0.475570000000     0.394804   
C9       C      0.335350000000     0.347830000000     0.215290000000     0.397052   
C10      C      0.196400000000     0.199280000000     0.212390000000     0.386633   
C11      C      0.344730000000     0.196670000000     0.218310000000     0.398692   
C12      C      0.188610000000     0.346020000000     0.219980000000     0.384604   
C13      C      0.183360000000     0.349640000000     0.344260000000     0.393756   
C14      C      0.350500000000     0.192390000000     0.340580000000     0.404552   
C15      C      0.343460000000     0.350290000000     0.346510000000     0.394098   
C16      C      0.183790000000     0.183330000000     0.334460000000     0.404499   
C17      C      0.135070000000     0.196180000000     0.154900000000    -0.0155446  
C18      C      0.196870000000     0.140050000000     0.152570000000    -0.0661328  
C19      C      0.100630000000     0.158370000000     0.153720000000    -0.0105857  
C20      C      0.162750000000     0.101720000000     0.151610000000     0.163949   
C21      C      0.110590000000     0.168420000000     0.428720000000    -0.0160968  
C22      C      0.168720000000     0.107660000000     0.428400000000    -0.0640516  
C23      C      0.112780000000     0.170260000000     0.376220000000    -0.0104576  
C24      C      0.170270000000     0.109890000000     0.375790000000     0.166758   
C25      C      0.182580000000     0.410350000000     0.166250000000    -0.017012   
C26      C      0.125060000000     0.349110000000     0.165240000000    -0.0667657  
C27      C      0.145140000000     0.445200000000     0.164770000000    -0.0121587  
C28      C      0.087860000000     0.384480000000     0.164400000000     0.164609   
C29      C      0.384280000000     0.096230000000     0.161220000000    -0.0155922  
C30      C      0.445310000000     0.153280000000     0.162910000000    -0.0660059  
C31      C      0.349340000000     0.133610000000     0.163210000000    -0.0106723  
C32      C      0.410630000000     0.191120000000     0.164380000000     0.163979   
C33      C      0.348770000000     0.413810000000     0.401290000000    -0.0159902  
C34      C      0.409520000000     0.355550000000     0.397550000000    -0.0685644  
C35      C      0.384540000000     0.450420000000     0.403110000000    -0.0104225  
C36      C      0.444570000000     0.392840000000     0.397760000000     0.164447   
C37      C      0.364390000000     0.120940000000     0.439020000000    -0.0145363  
C38      C      0.425140000000     0.178460000000     0.438580000000    -0.0663087  
C39      C      0.361440000000     0.123560000000     0.386660000000    -0.012354   
C40      C      0.421870000000     0.181730000000     0.385950000000     0.164179   
C41      C      0.172290000000     0.418170000000     0.391160000000    -0.015902   
C42      C      0.115630000000     0.355990000000     0.393280000000    -0.0662591  
C43      C      0.171980000000     0.419660000000     0.443700000000    -0.0105245  
C44      C      0.115890000000     0.358120000000     0.446030000000     0.163826   
C45      C      0.431530000000     0.381680000000     0.150040000000    -0.016645   
C46      C      0.377270000000     0.445690000000     0.154410000000    -0.0664927  
C47      C      0.392660000000     0.348770000000     0.153990000000    -0.0126013  
C48      C      0.338460000000     0.412300000000     0.158970000000     0.16371    
C49      C      0.438720000000     0.446370000000     0.597150000000     0.384627   
C50      C      0.096360000000     0.095570000000     0.598380000000     0.39993    
C51      C      0.085730000000     0.446770000000     0.605440000000     0.396625   
C52      C      0.446030000000     0.093070000000     0.604100000000     0.385103   
C53      C      0.435080000000     0.107120000000     0.981450000000     0.393267   
C54      C      0.101130000000     0.432030000000     0.985840000000     0.405811   
C55      C      0.445420000000     0.450920000000     0.960900000000     0.406332   
C56      C      0.099890000000     0.099740000000     0.975570000000     0.394739   
C57      C      0.335350000000     0.347830000000     0.715290000000     0.397057   
C58      C      0.196400000000     0.199280000000     0.712390000000     0.386656   
C59      C      0.344730000000     0.196670000000     0.718310000000     0.398658   
C60      C      0.188610000000     0.346020000000     0.719980000000     0.384624   
C61      C      0.183360000000     0.349640000000     0.844260000000     0.393747   
C62      C      0.350500000000     0.192390000000     0.840580000000     0.404558   
C63      C      0.343460000000     0.350290000000     0.846510000000     0.394104   
C64      C      0.183790000000     0.183330000000     0.834460000000     0.404467   
C65      C      0.135070000000     0.196180000000     0.654900000000    -0.0155502  
C66      C      0.196870000000     0.140050000000     0.652570000000    -0.0661279  
C67      C      0.100630000000     0.158370000000     0.653720000000    -0.0105795  
C68      C      0.162750000000     0.101720000000     0.651620000000     0.163976   
C69      C      0.110590000000     0.168420000000     0.928720000000    -0.0161072  
C70      C      0.168720000000     0.107660000000     0.928400000000    -0.0640698  
C71      C      0.112780000000     0.170260000000     0.876220000000    -0.0104562  
C72      C      0.170270000000     0.109890000000     0.875790000000     0.166789   
C73      C      0.182580000000     0.410350000000     0.666250000000    -0.0170214  
C74      C      0.125060000000     0.349110000000     0.665240000000    -0.0667741  
C75      C      0.145140000000     0.445200000000     0.664770000000    -0.0121448  
C76      C      0.087860000000     0.384480000000     0.664400000000     0.164619   
C77      C      0.384280000000     0.096230000000     0.661220000000    -0.0155801  
C78      C      0.445310000000     0.153280000000     0.662910000000    -0.0659507  
C79      C      0.349340000000     0.133610000000     0.663210000000    -0.0106851  
C80      C      0.410630000000     0.191120000000     0.664380000000     0.163962   
C81      C      0.348770000000     0.413810000000     0.901290000000    -0.0159963  
C82      C      0.409520000000     0.355550000000     0.897550000000    -0.0685484  
C83      C      0.384540000000     0.450420000000     0.903110000000    -0.0104178  
C84      C      0.444570000000     0.392840000000     0.897750000000     0.164401   
C85      C      0.364390000000     0.120940000000     0.939020000000    -0.0145516  
C86      C      0.425140000000     0.178460000000     0.938580000000    -0.0663521  
C87      C      0.361440000000     0.123560000000     0.886650000000    -0.0123432  
C88      C      0.421870000000     0.181730000000     0.885960000000     0.164164   
C89      C      0.172290000000     0.418170000000     0.891160000000    -0.0158973  
C90      C      0.115630000000     0.355990000000     0.893280000000    -0.0662667  
C91      C      0.171980000000     0.419660000000     0.943700000000    -0.0105358  
C92      C      0.115890000000     0.358120000000     0.946030000000     0.163821   
C93      C      0.431530000000     0.381680000000     0.650050000000    -0.0166588  
C94      C      0.377270000000     0.445690000000     0.654410000000    -0.066484   
C95      C      0.392660000000     0.348770000000     0.653990000000    -0.0125994  
C96      C      0.338460000000     0.412300000000     0.658970000000     0.163708   
C97      C      0.438720000000     0.946370000000     0.097150000000     0.384529   
C98      C      0.096360000000     0.595580000000     0.098380000000     0.399897   
C99      C      0.085730000000     0.946770000000     0.105440000000     0.396559   
C100     C      0.446030000000     0.593070000000     0.104100000000     0.385239   
C101     C      0.435080000000     0.607120000000     0.481450000000     0.393386   
C102     C      0.101130000000     0.932030000000     0.485840000000     0.405854   
C103     C      0.445420000000     0.950920000000     0.460900000000     0.406385   
C104     C      0.099890000000     0.599740000000     0.475570000000     0.39467    
C105     C      0.335350000000     0.847830000000     0.215290000000     0.39709    
C106     C      0.196400000000     0.699280000000     0.212390000000     0.386633   
C107     C      0.344730000000     0.696670000000     0.218310000000     0.398692   
C108     C      0.188610000000     0.846020000000     0.219980000000     0.384606   
C109     C      0.183360000000     0.849640000000     0.344260000000     0.393757   
C110     C      0.350500000000     0.692390000000     0.340580000000     0.404552   
C111     C      0.343460000000     0.850290000000     0.346510000000     0.394183   
C112     C      0.183790000000     0.683330000000     0.334460000000     0.404499   
C113     C      0.135070000000     0.696180000000     0.154900000000    -0.0155365  
C114     C      0.196870000000     0.640050000000     0.152570000000    -0.0661356  
C115     C      0.100630000000     0.658370000000     0.153720000000    -0.0106063  
C116     C      0.162750000000     0.601720000000     0.151610000000     0.163957   
C117     C      0.110590000000     0.668420000000     0.428720000000    -0.0160986  
C118     C      0.168720000000     0.607670000000     0.428400000000    -0.0640218  
C119     C      0.112780000000     0.670260000000     0.376220000000    -0.0104587  
C120     C      0.170270000000     0.609890000000     0.375790000000     0.166748   
C121     C      0.182580000000     0.910350000000     0.166250000000    -0.0170081  
C122     C      0.125060000000     0.849110000000     0.165240000000    -0.0667657  
C123     C      0.145140000000     0.945200000000     0.164770000000    -0.012166   
C124     C      0.087860000000     0.884480000000     0.164400000000     0.164609   
C125     C      0.384280000000     0.596230000000     0.161220000000    -0.0155894  
C126     C      0.445310000000     0.653280000000     0.162910000000    -0.0660021  
C127     C      0.349340000000     0.633610000000     0.163210000000    -0.0106714  
C128     C      0.410630000000     0.691120000000     0.164380000000     0.163978   
C129     C      0.348770000000     0.913810000000     0.401290000000    -0.0159856  
C130     C      0.409520000000     0.855550000000     0.397550000000    -0.0685816  
C131     C      0.384540000000     0.950420000000     0.403110000000    -0.0104294  
C132     C      0.444570000000     0.892840000000     0.397760000000     0.16445    
C133     C      0.364390000000     0.620940000000     0.439020000000    -0.0145176  
C134     C      0.425140000000     0.678460000000     0.438580000000    -0.0663072  
C135     C      0.361440000000     0.623560000000     0.386660000000    -0.012363   
C136     C      0.421870000000     0.681730000000     0.385950000000     0.164177   
C137     C      0.172290000000     0.918170000000     0.391160000000    -0.0159096  
C138     C      0.115630000000     0.855990000000     0.393280000000    -0.066261   
C139     C      0.171980000000     0.919660000000     0.443700000000    -0.0105099  
C140     C      0.115890000000     0.858120000000     0.446030000000     0.163827   
C141     C      0.431530000000     0.881680000000     0.150040000000    -0.0166515  
C142     C      0.377270000000     0.945690000000     0.154410000000    -0.0665234  
C143     C      0.392660000000     0.848780000000     0.153990000000    -0.0125119  
C144     C      0.338460000000     0.912300000000     0.158970000000     0.16369    
C145     C      0.438720000000     0.946370000000     0.597150000000     0.384581   
C146     C      0.096360000000     0.595580000000     0.598380000000     0.399907   
C147     C      0.085730000000     0.946770000000     0.605440000000     0.396617   
C148     C      0.446030000000     0.593070000000     0.604100000000     0.38524    
C149     C      0.435080000000     0.607120000000     0.981450000000     0.393274   
C150     C      0.101130000000     0.932030000000     0.985840000000     0.405803   
C151     C      0.445420000000     0.950920000000     0.960900000000     0.406326   
C152     C      0.099890000000     0.599740000000     0.975570000000     0.394605   
C153     C      0.335350000000     0.847830000000     0.715290000000     0.397095   
C154     C      0.196400000000     0.699280000000     0.712390000000     0.386656   
C155     C      0.344730000000     0.696670000000     0.718310000000     0.398658   
C156     C      0.188610000000     0.846020000000     0.719980000000     0.384625   
C157     C      0.183360000000     0.849640000000     0.844260000000     0.393749   
C158     C      0.350500000000     0.692390000000     0.840580000000     0.404558   
C159     C      0.343460000000     0.850290000000     0.846510000000     0.394188   
C160     C      0.183790000000     0.683330000000     0.834460000000     0.404466   
C161     C      0.135070000000     0.696180000000     0.654900000000    -0.0155422  
C162     C      0.196870000000     0.640050000000     0.652570000000    -0.0661307  
C163     C      0.100630000000     0.658370000000     0.653720000000    -0.0106001  
C164     C      0.162750000000     0.601720000000     0.651620000000     0.163985   
C165     C      0.110590000000     0.668420000000     0.928720000000    -0.0161091  
C166     C      0.168720000000     0.607670000000     0.928400000000    -0.06404    
C167     C      0.112780000000     0.670260000000     0.876220000000    -0.0104572  
C168     C      0.170270000000     0.609890000000     0.875790000000     0.166779   
C169     C      0.182580000000     0.910350000000     0.666250000000    -0.0170176  
C170     C      0.125060000000     0.849110000000     0.665240000000    -0.0667742  
C171     C      0.145140000000     0.945200000000     0.664770000000    -0.0121521  
C172     C      0.087860000000     0.884480000000     0.664400000000     0.164619   
C173     C      0.384280000000     0.596230000000     0.661220000000    -0.0155774  
C174     C      0.445310000000     0.653280000000     0.662910000000    -0.0659469  
C175     C      0.349340000000     0.633610000000     0.663210000000    -0.0106843  
C176     C      0.410630000000     0.691120000000     0.664380000000     0.163961   
C177     C      0.348770000000     0.913810000000     0.901290000000    -0.0159917  
C178     C      0.409520000000     0.855550000000     0.897550000000    -0.0685656  
C179     C      0.384540000000     0.950420000000     0.903110000000    -0.0104247  
C180     C      0.444570000000     0.892840000000     0.897750000000     0.164404   
C181     C      0.364390000000     0.620940000000     0.939020000000    -0.0145329  
C182     C      0.425140000000     0.678460000000     0.938580000000    -0.0663506  
C183     C      0.361440000000     0.623560000000     0.886650000000    -0.0123522  
C184     C      0.421870000000     0.681730000000     0.885960000000     0.164162   
C185     C      0.172290000000     0.918170000000     0.891160000000    -0.0159049  
C186     C      0.115630000000     0.855990000000     0.893280000000    -0.0662686  
C187     C      0.171980000000     0.919660000000     0.943700000000    -0.0105211  
C188     C      0.115890000000     0.858120000000     0.946030000000     0.163822   
C189     C      0.431530000000     0.881680000000     0.650050000000    -0.0166654  
C190     C      0.377270000000     0.945690000000     0.654410000000    -0.0665147  
C191     C      0.392660000000     0.848780000000     0.653990000000    -0.01251    
C192     C      0.338460000000     0.912300000000     0.658970000000     0.163688   
C193     C      0.938720000000     0.446370000000     0.097150000000     0.384584   
C194     C      0.596360000000     0.095570000000     0.098380000000     0.399924   
C195     C      0.585730000000     0.446770000000     0.105440000000     0.396576   
C196     C      0.946030000000     0.093070000000     0.104100000000     0.385246   
C197     C      0.935080000000     0.107120000000     0.481450000000     0.393389   
C198     C      0.601130000000     0.432030000000     0.485840000000     0.405869   
C199     C      0.945420000000     0.450920000000     0.460900000000     0.406396   
C200     C      0.599900000000     0.099740000000     0.475570000000     0.394775   
C201     C      0.835350000000     0.347830000000     0.215290000000     0.397053   
C202     C      0.696400000000     0.199280000000     0.212390000000     0.38665    
C203     C      0.844730000000     0.196670000000     0.218310000000     0.39869    
C204     C      0.688610000000     0.346020000000     0.219980000000     0.384621   
C205     C      0.683360000000     0.349640000000     0.344260000000     0.393774   
C206     C      0.850500000000     0.192390000000     0.340580000000     0.404558   
C207     C      0.843470000000     0.350290000000     0.346510000000     0.394066   
C208     C      0.683790000000     0.183330000000     0.334460000000     0.404519   
C209     C      0.635070000000     0.196180000000     0.154900000000    -0.0155401  
C210     C      0.696870000000     0.140050000000     0.152570000000    -0.0661324  
C211     C      0.600630000000     0.158370000000     0.153720000000    -0.0105925  
C212     C      0.662750000000     0.101720000000     0.151610000000     0.163948   
C213     C      0.610590000000     0.168420000000     0.428720000000    -0.0160856  
C214     C      0.668720000000     0.107660000000     0.428400000000    -0.0640501  
C215     C      0.612780000000     0.170260000000     0.376220000000    -0.0104615  
C216     C      0.670270000000     0.109890000000     0.375790000000     0.166758   
C217     C      0.682590000000     0.410350000000     0.166250000000    -0.0170763  
C218     C      0.625060000000     0.349110000000     0.165240000000    -0.066767   
C219     C      0.645140000000     0.445200000000     0.164770000000    -0.0121363  
C220     C      0.587860000000     0.384480000000     0.164400000000     0.164611   
C221     C      0.884280000000     0.096230000000     0.161220000000    -0.0155532  
C222     C      0.945310000000     0.153280000000     0.162910000000    -0.0660037  
C223     C      0.849330000000     0.133610000000     0.163210000000    -0.0107787  
C224     C      0.910630000000     0.191120000000     0.164380000000     0.163981   
C225     C      0.848770000000     0.413810000000     0.401290000000    -0.0159517  
C226     C      0.909520000000     0.355550000000     0.397550000000    -0.0685474  
C227     C      0.884540000000     0.450420000000     0.403110000000    -0.0104332  
C228     C      0.944570000000     0.392840000000     0.397760000000     0.164407   
C229     C      0.864390000000     0.120940000000     0.439020000000    -0.0145368  
C230     C      0.925140000000     0.178460000000     0.438580000000    -0.0663321  
C231     C      0.861440000000     0.123560000000     0.386660000000    -0.0123519  
C232     C      0.921860000000     0.181730000000     0.385950000000     0.164241   
C233     C      0.672290000000     0.418170000000     0.391160000000    -0.0159045  
C234     C      0.615620000000     0.355990000000     0.393280000000    -0.0663464  
C235     C      0.671980000000     0.419660000000     0.443700000000    -0.0105212  
C236     C      0.615890000000     0.358120000000     0.446030000000     0.163859   
C237     C      0.931530000000     0.381680000000     0.150040000000    -0.0166365  
C238     C      0.877270000000     0.445690000000     0.154410000000    -0.0664919  
C239     C      0.892660000000     0.348770000000     0.153990000000    -0.0126     
C240     C      0.838460000000     0.412300000000     0.158970000000     0.163709   
C241     C      0.938720000000     0.446370000000     0.597150000000     0.384636   
C242     C      0.596360000000     0.095570000000     0.598380000000     0.399934   
C243     C      0.585730000000     0.446770000000     0.605440000000     0.396633   
C244     C      0.946030000000     0.093070000000     0.604100000000     0.385248   
C245     C      0.935080000000     0.107120000000     0.981450000000     0.393277   
C246     C      0.601130000000     0.432030000000     0.985840000000     0.405818   
C247     C      0.945420000000     0.450920000000     0.960900000000     0.406338   
C248     C      0.599900000000     0.099740000000     0.975570000000     0.39471    
C249     C      0.835350000000     0.347830000000     0.715290000000     0.397058   
C250     C      0.696400000000     0.199280000000     0.712390000000     0.386673   
C251     C      0.844730000000     0.196670000000     0.718310000000     0.398656   
C252     C      0.688610000000     0.346020000000     0.719980000000     0.38464    
C253     C      0.683360000000     0.349640000000     0.844260000000     0.393766   
C254     C      0.850500000000     0.192390000000     0.840580000000     0.404564   
C255     C      0.843470000000     0.350290000000     0.846510000000     0.394072   
C256     C      0.683790000000     0.183330000000     0.834460000000     0.404486   
C257     C      0.635070000000     0.196180000000     0.654900000000    -0.0155458  
C258     C      0.696870000000     0.140050000000     0.652570000000    -0.0661275  
C259     C      0.600630000000     0.158370000000     0.653720000000    -0.0105863  
C260     C      0.662750000000     0.101720000000     0.651620000000     0.163975   
C261     C      0.610590000000     0.168420000000     0.928720000000    -0.0160961  
C262     C      0.668720000000     0.107660000000     0.928400000000    -0.0640682  
C263     C      0.612780000000     0.170260000000     0.876220000000    -0.0104601  
C264     C      0.670270000000     0.109890000000     0.875790000000     0.166789   
C265     C      0.682590000000     0.410350000000     0.666250000000    -0.0170858  
C266     C      0.625060000000     0.349110000000     0.665240000000    -0.0667755  
C267     C      0.645140000000     0.445200000000     0.664770000000    -0.0121224  
C268     C      0.587860000000     0.384480000000     0.664400000000     0.164621   
C269     C      0.884280000000     0.096230000000     0.661220000000    -0.0155412  
C270     C      0.945310000000     0.153280000000     0.662910000000    -0.0659485  
C271     C      0.849330000000     0.133610000000     0.663210000000    -0.0107916  
C272     C      0.910630000000     0.191120000000     0.664380000000     0.163964   
C273     C      0.848770000000     0.413810000000     0.901290000000    -0.0159578  
C274     C      0.909520000000     0.355550000000     0.897550000000    -0.0685314  
C275     C      0.884540000000     0.450420000000     0.903110000000    -0.0104285  
C276     C      0.944570000000     0.392840000000     0.897750000000     0.16436    
C277     C      0.864390000000     0.120940000000     0.939020000000    -0.0145521  
C278     C      0.925140000000     0.178460000000     0.938580000000    -0.0663756  
C279     C      0.861440000000     0.123560000000     0.886650000000    -0.0123412  
C280     C      0.921860000000     0.181730000000     0.885960000000     0.164225   
C281     C      0.672290000000     0.418170000000     0.891160000000    -0.0158998  
C282     C      0.615620000000     0.355990000000     0.893280000000    -0.0663541  
C283     C      0.671980000000     0.419660000000     0.943700000000    -0.0105324  
C284     C      0.615890000000     0.358120000000     0.946030000000     0.163854   
C285     C      0.931530000000     0.381680000000     0.650050000000    -0.0166504  
C286     C      0.877270000000     0.445690000000     0.654410000000    -0.0664832  
C287     C      0.892660000000     0.348770000000     0.653990000000    -0.0125981  
C288     C      0.838460000000     0.412300000000     0.658970000000     0.163708   
C289     C      0.938720000000     0.946370000000     0.097150000000     0.384538   
C290     C      0.596360000000     0.595580000000     0.098380000000     0.399901   
C291     C      0.585730000000     0.946770000000     0.105440000000     0.396568   
C292     C      0.946030000000     0.593070000000     0.104100000000     0.385384   
C293     C      0.935080000000     0.607120000000     0.481450000000     0.393396   
C294     C      0.601130000000     0.932030000000     0.485840000000     0.405861   
C295     C      0.945420000000     0.950920000000     0.460900000000     0.406391   
C296     C      0.599900000000     0.599740000000     0.475570000000     0.394641   
C297     C      0.835350000000     0.847830000000     0.215290000000     0.397091   
C298     C      0.696400000000     0.699280000000     0.212390000000     0.38665    
C299     C      0.844730000000     0.696670000000     0.218310000000     0.39869    
C300     C      0.688610000000     0.846020000000     0.219980000000     0.384622   
C301     C      0.683360000000     0.849640000000     0.344260000000     0.393776   
C302     C      0.850500000000     0.692390000000     0.340580000000     0.404558   
C303     C      0.843470000000     0.850290000000     0.346510000000     0.39415    
C304     C      0.683790000000     0.683330000000     0.334460000000     0.404519   
C305     C      0.635070000000     0.696180000000     0.154900000000    -0.0155321  
C306     C      0.696870000000     0.640050000000     0.152570000000    -0.0661352  
C307     C      0.600630000000     0.658370000000     0.153720000000    -0.0106131  
C308     C      0.662750000000     0.601720000000     0.151610000000     0.163956   
C309     C      0.610590000000     0.668420000000     0.428720000000    -0.0160874  
C310     C      0.668720000000     0.607670000000     0.428400000000    -0.0640203  
C311     C      0.612780000000     0.670260000000     0.376220000000    -0.0104626  
C312     C      0.670270000000     0.609890000000     0.375790000000     0.166748   
C313     C      0.682590000000     0.910350000000     0.166250000000    -0.0170725  
C314     C      0.625060000000     0.849110000000     0.165240000000    -0.066767   
C315     C      0.645140000000     0.945200000000     0.164770000000    -0.0121435  
C316     C      0.587860000000     0.884480000000     0.164400000000     0.16461    
C317     C      0.884280000000     0.596230000000     0.161220000000    -0.0155505  
C318     C      0.945310000000     0.653280000000     0.162910000000    -0.0659999  
C319     C      0.849330000000     0.633610000000     0.163210000000    -0.0107779  
C320     C      0.910630000000     0.691120000000     0.164380000000     0.16398    
C321     C      0.848770000000     0.913810000000     0.401290000000    -0.0159471  
C322     C      0.909520000000     0.855550000000     0.397550000000    -0.0685646  
C323     C      0.884540000000     0.950420000000     0.403110000000    -0.0104402  
C324     C      0.944570000000     0.892840000000     0.397760000000     0.164409   
C325     C      0.864390000000     0.620940000000     0.439020000000    -0.0145182  
C326     C      0.925140000000     0.678460000000     0.438580000000    -0.0663307  
C327     C      0.861440000000     0.623560000000     0.386660000000    -0.012361   
C328     C      0.921860000000     0.681730000000     0.385950000000     0.164239   
C329     C      0.672290000000     0.918170000000     0.391160000000    -0.0159121  
C330     C      0.615620000000     0.855990000000     0.393280000000    -0.0663483  
C331     C      0.671980000000     0.919660000000     0.443700000000    -0.0105065  
C332     C      0.615890000000     0.858120000000     0.446030000000     0.16386    
C333     C      0.931530000000     0.881680000000     0.150040000000    -0.0166431  
C334     C      0.877270000000     0.945690000000     0.154410000000    -0.0665225  
C335     C      0.892660000000     0.848780000000     0.153990000000    -0.0125106  
C336     C      0.838460000000     0.912300000000     0.158970000000     0.163689   
C337     C      0.938720000000     0.946370000000     0.597150000000     0.384589   
C338     C      0.596360000000     0.595580000000     0.598380000000     0.399911   
C339     C      0.585730000000     0.946770000000     0.605440000000     0.396625   
C340     C      0.946030000000     0.593070000000     0.604100000000     0.385385   
C341     C      0.935080000000     0.607120000000     0.981450000000     0.393284   
C342     C      0.601130000000     0.932030000000     0.985840000000     0.40581    
C343     C      0.945420000000     0.950920000000     0.960900000000     0.406332   
C344     C      0.599900000000     0.599740000000     0.975570000000     0.394575   
C345     C      0.835350000000     0.847830000000     0.715290000000     0.397095   
C346     C      0.696400000000     0.699280000000     0.712390000000     0.386673   
C347     C      0.844730000000     0.696670000000     0.718310000000     0.398656   
C348     C      0.688610000000     0.846020000000     0.719980000000     0.384642   
C349     C      0.683360000000     0.849640000000     0.844260000000     0.393767   
C350     C      0.850500000000     0.692390000000     0.840580000000     0.404564   
C351     C      0.843470000000     0.850290000000     0.846510000000     0.394156   
C352     C      0.683790000000     0.683330000000     0.834460000000     0.404486   
C353     C      0.635070000000     0.696180000000     0.654900000000    -0.0155377  
C354     C      0.696870000000     0.640050000000     0.652570000000    -0.0661303  
C355     C      0.600630000000     0.658370000000     0.653720000000    -0.0106069  
C356     C      0.662750000000     0.601720000000     0.651620000000     0.163983   
C357     C      0.610590000000     0.668420000000     0.928720000000    -0.0160979  
C358     C      0.668720000000     0.607670000000     0.928400000000    -0.0640384  
C359     C      0.612780000000     0.670260000000     0.876220000000    -0.0104612  
C360     C      0.670270000000     0.609890000000     0.875790000000     0.166779   
C361     C      0.682590000000     0.910350000000     0.666250000000    -0.017082   
C362     C      0.625060000000     0.849110000000     0.665240000000    -0.0667755  
C363     C      0.645140000000     0.945200000000     0.664770000000    -0.0121296  
C364     C      0.587860000000     0.884480000000     0.664400000000     0.16462    
C365     C      0.884280000000     0.596230000000     0.661220000000    -0.0155384  
C366     C      0.945310000000     0.653280000000     0.662910000000    -0.0659447  
C367     C      0.849330000000     0.633610000000     0.663210000000    -0.0107907  
C368     C      0.910630000000     0.691120000000     0.664380000000     0.163962   
C369     C      0.848770000000     0.913810000000     0.901290000000    -0.0159531  
C370     C      0.909520000000     0.855550000000     0.897550000000    -0.0685486  
C371     C      0.884540000000     0.950420000000     0.903110000000    -0.0104355  
C372     C      0.944570000000     0.892840000000     0.897750000000     0.164363   
C373     C      0.864390000000     0.620940000000     0.939020000000    -0.0145334  
C374     C      0.925140000000     0.678460000000     0.938580000000    -0.0663741  
C375     C      0.861440000000     0.623560000000     0.886650000000    -0.0123502  
C376     C      0.921860000000     0.681730000000     0.885960000000     0.164223   
C377     C      0.672290000000     0.918170000000     0.891160000000    -0.0159074  
C378     C      0.615620000000     0.855990000000     0.893280000000    -0.066356   
C379     C      0.671980000000     0.919660000000     0.943700000000    -0.0105178  
C380     C      0.615890000000     0.858120000000     0.946030000000     0.163855   
C381     C      0.931530000000     0.881680000000     0.650050000000    -0.016657   
C382     C      0.877270000000     0.945690000000     0.654410000000    -0.0665138  
C383     C      0.892660000000     0.848780000000     0.653990000000    -0.0125087  
C384     C      0.838460000000     0.912300000000     0.658970000000     0.163687   
Co1      Co     0.451620000000     0.022450000000     0.032180000000     0.83553    
Co2      Co     0.083460000000     0.519010000000     0.533880000000     0.837537   
Co3      Co     0.516080000000     0.455020000000     0.032990000000     0.840434   
Co4      Co     0.518910000000     0.086900000000     0.533940000000     0.835888   
Co5      Co     0.264160000000     0.337230000000     0.286170000000     0.837811   
Co6      Co     0.267970000000     0.204900000000     0.283740000000     0.835443   
Co7      Co     0.331510000000     0.272730000000     0.283240000000     0.83995    
Co8      Co     0.200110000000     0.269510000000     0.285010000000     0.836954   
Co9      Co     0.451620000000     0.022450000000     0.532180000000     0.836164   
Co10     Co     0.083460000000     0.519010000000     0.033880000000     0.836941   
Co11     Co     0.516080000000     0.455020000000     0.532990000000     0.841023   
Co12     Co     0.518910000000     0.086900000000     0.033950000000     0.835244   
Co13     Co     0.264160000000     0.337230000000     0.786170000000     0.837806   
Co14     Co     0.267970000000     0.204900000000     0.783740000000     0.835482   
Co15     Co     0.331510000000     0.272730000000     0.783240000000     0.839944   
Co16     Co     0.200110000000     0.269510000000     0.785000000000     0.836975   
Co17     Co     0.451620000000     0.522450000000     0.032180000000     0.835746   
Co18     Co     0.083460000000     0.019010000000     0.533880000000     0.837304   
Co19     Co     0.516080000000     0.955020000000     0.032990000000     0.840588   
Co20     Co     0.518910000000     0.586900000000     0.533940000000     0.835871   
Co21     Co     0.264160000000     0.837230000000     0.286170000000     0.837858   
Co22     Co     0.267970000000     0.704900000000     0.283740000000     0.835444   
Co23     Co     0.331510000000     0.772730000000     0.283240000000     0.839957   
Co24     Co     0.200110000000     0.769510000000     0.285010000000     0.836949   
Co25     Co     0.451620000000     0.522450000000     0.532180000000     0.83638    
Co26     Co     0.083460000000     0.019010000000     0.033880000000     0.836708   
Co27     Co     0.516080000000     0.955020000000     0.532990000000     0.841177   
Co28     Co     0.518910000000     0.586900000000     0.033950000000     0.835227   
Co29     Co     0.264160000000     0.837230000000     0.786170000000     0.837854   
Co30     Co     0.267970000000     0.704900000000     0.783740000000     0.835483   
Co31     Co     0.331510000000     0.772730000000     0.783240000000     0.839951   
Co32     Co     0.200110000000     0.769510000000     0.785000000000     0.836969   
Co33     Co     0.951610000000     0.022450000000     0.032180000000     0.835825   
Co34     Co     0.583460000000     0.519010000000     0.533880000000     0.837523   
Co35     Co     0.016080000000     0.455020000000     0.032990000000     0.840163   
Co36     Co     0.018910000000     0.086900000000     0.533940000000     0.835622   
Co37     Co     0.764160000000     0.337230000000     0.286170000000     0.837814   
Co38     Co     0.767970000000     0.204900000000     0.283740000000     0.835458   
Co39     Co     0.831510000000     0.272730000000     0.283240000000     0.839951   
Co40     Co     0.700100000000     0.269510000000     0.285010000000     0.837052   
Co41     Co     0.951610000000     0.022450000000     0.532180000000     0.836459   
Co42     Co     0.583460000000     0.519010000000     0.033880000000     0.836927   
Co43     Co     0.016080000000     0.455020000000     0.532990000000     0.840752   
Co44     Co     0.018910000000     0.086900000000     0.033950000000     0.834978   
Co45     Co     0.764160000000     0.337230000000     0.786170000000     0.83781    
Co46     Co     0.767970000000     0.204900000000     0.783740000000     0.835497   
Co47     Co     0.831510000000     0.272730000000     0.783240000000     0.839946   
Co48     Co     0.700100000000     0.269510000000     0.785000000000     0.837073   
Co49     Co     0.951610000000     0.522450000000     0.032180000000     0.836041   
Co50     Co     0.583460000000     0.019010000000     0.533880000000     0.83729    
Co51     Co     0.016080000000     0.955020000000     0.032990000000     0.840318   
Co52     Co     0.018910000000     0.586900000000     0.533940000000     0.835605   
Co53     Co     0.764160000000     0.837230000000     0.286170000000     0.837862   
Co54     Co     0.767970000000     0.704900000000     0.283740000000     0.835459   
Co55     Co     0.831510000000     0.772730000000     0.283240000000     0.839958   
Co56     Co     0.700100000000     0.769510000000     0.285010000000     0.837047   
Co57     Co     0.951610000000     0.522450000000     0.532180000000     0.836675   
Co58     Co     0.583460000000     0.019010000000     0.033880000000     0.836694   
Co59     Co     0.016080000000     0.955020000000     0.532990000000     0.840906   
Co60     Co     0.018910000000     0.586900000000     0.033950000000     0.834961   
Co61     Co     0.764160000000     0.837230000000     0.786170000000     0.837857   
Co62     Co     0.767970000000     0.704900000000     0.783740000000     0.835498   
Co63     Co     0.831510000000     0.772730000000     0.783240000000     0.839953   
Co64     Co     0.700100000000     0.769510000000     0.785000000000     0.837068   
H1       H      0.091240000000     0.150200000000     0.189740000000     0.0425404  
H2       H      0.120890000000     0.225100000000     0.173990000000     0.0511149  
H3       H      0.156310000000     0.091200000000     0.187820000000     0.00568054 
H4       H      0.227920000000     0.128370000000     0.169750000000     0.0647205  
H5       H      0.070080000000     0.170840000000     0.136210000000     0.0506118  
H6       H      0.141420000000     0.207200000000     0.118980000000     0.0450421  
H7       H      0.205600000000     0.148840000000     0.116520000000     0.0636189  
H8       H      0.201780000000     0.049800000000     0.147870000000     0.137325   
H9       H      0.087030000000     0.147080000000     0.362310000000     0.0407829  
H10      H      0.076170000000     0.177210000000     0.439850000000     0.0492686  
H11      H      0.144810000000     0.085490000000     0.363110000000     0.00322064 
H12      H      0.176040000000     0.072830000000     0.439560000000     0.0721919  
H13      H      0.103900000000     0.204610000000     0.364750000000     0.0486153  
H14      H      0.133620000000     0.194290000000     0.442680000000     0.044625   
H15      H      0.195480000000     0.129650000000     0.442350000000     0.0671056  
H16      H      0.209080000000     0.082980000000     0.330020000000     0.153501   
H17      H      0.136800000000     0.454660000000     0.200730000000     0.0426126  
H18      H      0.211070000000     0.424490000000     0.185910000000     0.0575459  
H19      H      0.078920000000     0.392440000000     0.200750000000     0.00604304 
H20      H      0.112790000000     0.318940000000     0.183710000000     0.0659232  
H21      H      0.157780000000     0.475710000000     0.147320000000     0.0567382  
H22      H      0.194140000000     0.404140000000     0.130500000000     0.0476498  
H23      H      0.132500000000     0.339040000000     0.129240000000     0.0662008  
H24      H      0.034700000000     0.347130000000     0.163920000000     0.137418   
H25      H      0.339120000000     0.141690000000     0.127410000000     0.0425213  
H26      H      0.370210000000     0.067350000000     0.141990000000     0.0504037  
H27      H      0.403560000000     0.201580000000     0.128280000000     0.00687457 
H28      H      0.475920000000     0.165480000000     0.145280000000     0.0654824  
H29      H      0.319290000000     0.120690000000     0.181310000000     0.0501033  
H30      H      0.391150000000     0.084910000000     0.196940000000     0.0448865  
H31      H      0.454710000000     0.144660000000     0.198830000000     0.0642546  
H32      H      0.448930000000     0.243610000000     0.167630000000     0.138564   
H33      H      0.391050000000     0.461940000000     0.367380000000     0.0430206  
H34      H      0.318930000000     0.427160000000     0.383160000000     0.0520291  
H35      H      0.450570000000     0.402980000000     0.361340000000     0.00680138 
H36      H      0.422550000000     0.326770000000     0.377380000000     0.075981   
H37      H      0.371180000000     0.479440000000     0.422660000000     0.0505234  
H38      H      0.338640000000     0.405740000000     0.437120000000     0.0454721  
H39      H      0.404360000000     0.343920000000     0.433480000000     0.0693534  
H40      H      0.500000000000     0.359240000000     0.392590000000     0.142434   
H41      H      0.383740000000     0.097410000000     0.371990000000     0.0442281  
H42      H      0.355030000000     0.086630000000     0.450220000000     0.052463   
H43      H      0.446380000000     0.157580000000     0.371060000000     0.006665   
H44      H      0.460050000000     0.185640000000     0.449330000000     0.0652459  
H45      H      0.326720000000     0.115310000000     0.376140000000     0.0581056  
H46      H      0.339510000000     0.144600000000     0.453730000000     0.0465279  
H47      H      0.403330000000     0.204710000000     0.453820000000     0.0651027  
H48      H      0.466120000000     0.227510000000     0.372230000000     0.140466   
H49      H      0.198550000000     0.396790000000     0.456470000000     0.0427663  
H50      H      0.206030000000     0.427910000000     0.378750000000     0.0524587  
H51      H      0.142410000000     0.334780000000     0.458470000000     0.00627013 
H52      H      0.108820000000     0.321020000000     0.382260000000     0.0633005  
H53      H      0.180660000000     0.454060000000     0.455150000000     0.0519565  
H54      H      0.148110000000     0.443520000000     0.378290000000     0.0463499  
H55      H      0.087870000000     0.377350000000     0.380420000000     0.0652785  
H56      H      0.073670000000     0.311070000000     0.461670000000     0.140455   
H57      H      0.381570000000     0.339890000000     0.118660000000     0.0434024  
H58      H      0.457960000000     0.366090000000     0.128560000000     0.0595705  
H59      H      0.325600000000     0.405100000000     0.123740000000     0.0058949  
H60      H      0.365130000000     0.476040000000     0.136160000000     0.0648433  
H61      H      0.405020000000     0.317610000000     0.170420000000     0.0576079  
H62      H      0.445580000000     0.387340000000     0.184940000000     0.0478961  
H63      H      0.387710000000     0.456200000000     0.189480000000     0.0642258  
H64      H      0.288130000000     0.452960000000     0.165100000000     0.137112   
H65      H      0.091240000000     0.150200000000     0.689740000000     0.0425314  
H66      H      0.120890000000     0.225100000000     0.673990000000     0.0511327  
H67      H      0.156310000000     0.091200000000     0.687820000000     0.00564772 
H68      H      0.227920000000     0.128370000000     0.669760000000     0.0647325  
H69      H      0.070080000000     0.170840000000     0.636210000000     0.0506386  
H70      H      0.141420000000     0.207200000000     0.618980000000     0.0451189  
H71      H      0.205600000000     0.148840000000     0.616520000000     0.0636973  
H72      H      0.201780000000     0.049800000000     0.647870000000     0.137397   
H73      H      0.087030000000     0.147080000000     0.862310000000     0.040783   
H74      H      0.076170000000     0.177210000000     0.939850000000     0.0493082  
H75      H      0.144810000000     0.085490000000     0.863110000000     0.00321036 
H76      H      0.176040000000     0.072830000000     0.939560000000     0.072239   
H77      H      0.103900000000     0.204610000000     0.864750000000     0.0486152  
H78      H      0.133620000000     0.194290000000     0.942680000000     0.0446854  
H79      H      0.195480000000     0.129650000000     0.942350000000     0.0671741  
H80      H      0.209080000000     0.082980000000     0.830030000000     0.153581   
H81      H      0.136800000000     0.454660000000     0.700730000000     0.0426017  
H82      H      0.211070000000     0.424490000000     0.685910000000     0.0575557  
H83      H      0.078920000000     0.392440000000     0.700750000000     0.00603296 
H84      H      0.112790000000     0.318940000000     0.683710000000     0.0659373  
H85      H      0.157780000000     0.475710000000     0.647320000000     0.056755   
H86      H      0.194140000000     0.404140000000     0.630500000000     0.0477171  
H87      H      0.132500000000     0.339040000000     0.629240000000     0.0662713  
H88      H      0.034700000000     0.347130000000     0.663920000000     0.137423   
H89      H      0.339120000000     0.141690000000     0.627410000000     0.0425906  
H90      H      0.370210000000     0.067350000000     0.641990000000     0.0504253  
H91      H      0.403560000000     0.201580000000     0.628280000000     0.00694383 
H92      H      0.475920000000     0.165480000000     0.645280000000     0.0654933  
H93      H      0.319290000000     0.120690000000     0.681310000000     0.0501129  
H94      H      0.391150000000     0.084910000000     0.696940000000     0.044876   
H95      H      0.454710000000     0.144660000000     0.698840000000     0.0642224  
H96      H      0.448930000000     0.243610000000     0.667630000000     0.13859    
H97      H      0.391050000000     0.461940000000     0.867380000000     0.0430182  
H98      H      0.318930000000     0.427160000000     0.883160000000     0.0520433  
H99      H      0.450570000000     0.402980000000     0.861340000000     0.00678676 
H100     H      0.422550000000     0.326770000000     0.877380000000     0.0759855  
H101     H      0.371180000000     0.479440000000     0.922660000000     0.0505521  
H102     H      0.338640000000     0.405740000000     0.937120000000     0.0455424  
H103     H      0.404360000000     0.343920000000     0.933480000000     0.0694157  
H104     H      0.500000000000     0.359240000000     0.892590000000     0.142425   
H105     H      0.383740000000     0.097410000000     0.871980000000     0.044227   
H106     H      0.355030000000     0.086630000000     0.950220000000     0.0525171  
H107     H      0.446380000000     0.157580000000     0.871060000000     0.00668327 
H108     H      0.460050000000     0.185640000000     0.949330000000     0.0653002  
H109     H      0.326720000000     0.115310000000     0.876140000000     0.0581136  
H110     H      0.339510000000     0.144600000000     0.953730000000     0.046601   
H111     H      0.403330000000     0.204710000000     0.953820000000     0.0651805  
H112     H      0.466120000000     0.227510000000     0.872230000000     0.140469   
H113     H      0.198550000000     0.396790000000     0.956470000000     0.0428407  
H114     H      0.206030000000     0.427910000000     0.878750000000     0.0524659  
H115     H      0.142410000000     0.334780000000     0.958470000000     0.00633775 
H116     H      0.108820000000     0.321020000000     0.882270000000     0.0633052  
H117     H      0.180660000000     0.454060000000     0.955150000000     0.0520136  
H118     H      0.148110000000     0.443520000000     0.878290000000     0.04635    
H119     H      0.087870000000     0.377350000000     0.880420000000     0.0652801  
H120     H      0.073670000000     0.311070000000     0.961670000000     0.140509   
H121     H      0.381570000000     0.339890000000     0.618660000000     0.0434738  
H122     H      0.457960000000     0.366090000000     0.628560000000     0.0596132  
H123     H      0.325600000000     0.405100000000     0.623740000000     0.00595974 
H124     H      0.365130000000     0.476040000000     0.636160000000     0.0648699  
H125     H      0.405020000000     0.317610000000     0.670420000000     0.0576227  
H126     H      0.445580000000     0.387340000000     0.684940000000     0.047897   
H127     H      0.387710000000     0.456200000000     0.689480000000     0.0642158  
H128     H      0.288130000000     0.452960000000     0.665100000000     0.137138   
H129     H      0.091240000000     0.650200000000     0.189740000000     0.0425526  
H130     H      0.120890000000     0.725100000000     0.173990000000     0.0511131  
H131     H      0.156310000000     0.591200000000     0.187820000000     0.00569943 
H132     H      0.227920000000     0.628370000000     0.169750000000     0.0647284  
H133     H      0.070080000000     0.670830000000     0.136210000000     0.0506222  
H134     H      0.141420000000     0.707200000000     0.118980000000     0.0450379  
H135     H      0.205600000000     0.648840000000     0.116520000000     0.063621   
H136     H      0.201780000000     0.549800000000     0.147870000000     0.137361   
H137     H      0.087030000000     0.647080000000     0.362310000000     0.0407917  
H138     H      0.076170000000     0.677210000000     0.439850000000     0.0492704  
H139     H      0.144810000000     0.585490000000     0.363110000000     0.00324448 
H140     H      0.176040000000     0.572830000000     0.439560000000     0.0721972  
H141     H      0.103900000000     0.704610000000     0.364750000000     0.0486159  
H142     H      0.133620000000     0.694290000000     0.442680000000     0.0446241  
H143     H      0.195480000000     0.629650000000     0.442350000000     0.0671073  
H144     H      0.209080000000     0.582980000000     0.330020000000     0.153522   
H145     H      0.136800000000     0.954660000000     0.200730000000     0.0426397  
H146     H      0.211070000000     0.924490000000     0.185910000000     0.0575579  
H147     H      0.078920000000     0.892440000000     0.200750000000     0.0060514  
H148     H      0.112790000000     0.818940000000     0.183710000000     0.0659228  
H149     H      0.157780000000     0.975710000000     0.147320000000     0.0567778  
H150     H      0.194140000000     0.904140000000     0.130500000000     0.0476551  
H151     H      0.132500000000     0.839040000000     0.129240000000     0.0661997  
H152     H      0.034700000000     0.847130000000     0.163920000000     0.137419   
H153     H      0.339120000000     0.641690000000     0.127410000000     0.0425259  
H154     H      0.370210000000     0.567350000000     0.141990000000     0.0504371  
H155     H      0.403560000000     0.701580000000     0.128280000000     0.00687385 
H156     H      0.475920000000     0.665480000000     0.145280000000     0.0654813  
H157     H      0.319290000000     0.620690000000     0.181310000000     0.0501143  
H158     H      0.391150000000     0.584910000000     0.196940000000     0.0449101  
H159     H      0.454710000000     0.644660000000     0.198830000000     0.0642614  
H160     H      0.448930000000     0.743610000000     0.167630000000     0.138563   
H161     H      0.391050000000     0.961940000000     0.367380000000     0.0430475  
H162     H      0.318930000000     0.927160000000     0.383160000000     0.0520373  
H163     H      0.450570000000     0.902980000000     0.361340000000     0.00681042 
H164     H      0.422550000000     0.826770000000     0.377380000000     0.0759858  
H165     H      0.371180000000     0.979440000000     0.422660000000     0.0505589  
H166     H      0.338640000000     0.905740000000     0.437120000000     0.0454766  
H167     H      0.404360000000     0.843930000000     0.433480000000     0.0693631  
H168     H      0.500000000000     0.859240000000     0.392590000000     0.142436   
H169     H      0.383740000000     0.597410000000     0.371990000000     0.0442534  
H170     H      0.355030000000     0.586630000000     0.450220000000     0.0524848  
H171     H      0.446380000000     0.657580000000     0.371060000000     0.00667269 
H172     H      0.460050000000     0.685640000000     0.449330000000     0.0652456  
H173     H      0.326720000000     0.615310000000     0.376140000000     0.0581214  
H174     H      0.339510000000     0.644610000000     0.453730000000     0.046526   
H175     H      0.403330000000     0.704710000000     0.453820000000     0.0651008  
H176     H      0.466120000000     0.727510000000     0.372230000000     0.140467   
H177     H      0.198550000000     0.896780000000     0.456470000000     0.0427672  
H178     H      0.206030000000     0.927910000000     0.378750000000     0.0524767  
H179     H      0.142410000000     0.834780000000     0.458470000000     0.00626811 
H180     H      0.108820000000     0.821020000000     0.382260000000     0.0633008  
H181     H      0.180660000000     0.954060000000     0.455150000000     0.0519803  
H182     H      0.148110000000     0.943520000000     0.378290000000     0.0463762  
H183     H      0.087870000000     0.877350000000     0.380420000000     0.0652857  
H184     H      0.073670000000     0.811070000000     0.461670000000     0.140454   
H185     H      0.381570000000     0.839890000000     0.118660000000     0.0433787  
H186     H      0.457960000000     0.866090000000     0.128560000000     0.0595714  
H187     H      0.325600000000     0.905100000000     0.123740000000     0.00590631 
H188     H      0.365130000000     0.976040000000     0.136160000000     0.0648839  
H189     H      0.405020000000     0.817610000000     0.170420000000     0.0575819  
H190     H      0.445580000000     0.887340000000     0.184940000000     0.0479013  
H191     H      0.387710000000     0.956200000000     0.189480000000     0.0642551  
H192     H      0.288130000000     0.952960000000     0.165100000000     0.137135   
H193     H      0.091240000000     0.650200000000     0.689740000000     0.0425436  
H194     H      0.120890000000     0.725100000000     0.673990000000     0.0511309  
H195     H      0.156310000000     0.591200000000     0.687820000000     0.0056666  
H196     H      0.227920000000     0.628370000000     0.669760000000     0.0647404  
H197     H      0.070080000000     0.670830000000     0.636210000000     0.0506489  
H198     H      0.141420000000     0.707200000000     0.618980000000     0.0451147  
H199     H      0.205600000000     0.648840000000     0.616520000000     0.0636993  
H200     H      0.201780000000     0.549800000000     0.647870000000     0.137433   
H201     H      0.087030000000     0.647080000000     0.862310000000     0.0407919  
H202     H      0.076170000000     0.677210000000     0.939850000000     0.04931    
H203     H      0.144810000000     0.585490000000     0.863110000000     0.0032342  
H204     H      0.176040000000     0.572830000000     0.939560000000     0.0722443  
H205     H      0.103900000000     0.704610000000     0.864750000000     0.0486158  
H206     H      0.133620000000     0.694290000000     0.942680000000     0.0446845  
H207     H      0.195480000000     0.629650000000     0.942350000000     0.0671758  
H208     H      0.209080000000     0.582980000000     0.830030000000     0.153602   
H209     H      0.136800000000     0.954660000000     0.700730000000     0.0426288  
H210     H      0.211070000000     0.924490000000     0.685910000000     0.0575677  
H211     H      0.078920000000     0.892440000000     0.700750000000     0.00604131 
H212     H      0.112790000000     0.818940000000     0.683710000000     0.065937   
H213     H      0.157780000000     0.975710000000     0.647320000000     0.0567947  
H214     H      0.194140000000     0.904140000000     0.630500000000     0.0477224  
H215     H      0.132500000000     0.839040000000     0.629240000000     0.0662702  
H216     H      0.034700000000     0.847130000000     0.663920000000     0.137423   
H217     H      0.339120000000     0.641690000000     0.627410000000     0.0425952  
H218     H      0.370210000000     0.567350000000     0.641990000000     0.0504588  
H219     H      0.403560000000     0.701580000000     0.628280000000     0.00694311 
H220     H      0.475920000000     0.665480000000     0.645280000000     0.0654923  
H221     H      0.319290000000     0.620690000000     0.681310000000     0.0501238  
H222     H      0.391150000000     0.584910000000     0.696940000000     0.0448996  
H223     H      0.454710000000     0.644660000000     0.698840000000     0.0642293  
H224     H      0.448930000000     0.743610000000     0.667630000000     0.138589   
H225     H      0.391050000000     0.961940000000     0.867380000000     0.043045   
H226     H      0.318930000000     0.927160000000     0.883160000000     0.0520515  
H227     H      0.450570000000     0.902980000000     0.861340000000     0.0067958  
H228     H      0.422550000000     0.826770000000     0.877380000000     0.0759903  
H229     H      0.371180000000     0.979440000000     0.922660000000     0.0505875  
H230     H      0.338640000000     0.905740000000     0.937120000000     0.045547   
H231     H      0.404360000000     0.843930000000     0.933480000000     0.0694254  
H232     H      0.500000000000     0.859240000000     0.892590000000     0.142427   
H233     H      0.383740000000     0.597410000000     0.871980000000     0.0442523  
H234     H      0.355030000000     0.586630000000     0.950220000000     0.052539   
H235     H      0.446380000000     0.657580000000     0.871060000000     0.00669097 
H236     H      0.460050000000     0.685640000000     0.949330000000     0.0652999  
H237     H      0.326720000000     0.615310000000     0.876140000000     0.0581294  
H238     H      0.339510000000     0.644610000000     0.953730000000     0.046599   
H239     H      0.403330000000     0.704710000000     0.953820000000     0.0651785  
H240     H      0.466120000000     0.727510000000     0.872230000000     0.14047    
H241     H      0.198550000000     0.896780000000     0.956470000000     0.0428415  
H242     H      0.206030000000     0.927910000000     0.878750000000     0.0524838  
H243     H      0.142410000000     0.834780000000     0.958470000000     0.00633573 
H244     H      0.108820000000     0.821020000000     0.882270000000     0.0633054  
H245     H      0.180660000000     0.954060000000     0.955150000000     0.0520374  
H246     H      0.148110000000     0.943520000000     0.878290000000     0.0463762  
H247     H      0.087870000000     0.877350000000     0.880420000000     0.0652872  
H248     H      0.073670000000     0.811070000000     0.961670000000     0.140507   
H249     H      0.381570000000     0.839890000000     0.618660000000     0.0434501  
H250     H      0.457960000000     0.866090000000     0.628560000000     0.0596141  
H251     H      0.325600000000     0.905100000000     0.623740000000     0.00597114 
H252     H      0.365130000000     0.976040000000     0.636160000000     0.0649104  
H253     H      0.405020000000     0.817610000000     0.670420000000     0.0575966  
H254     H      0.445580000000     0.887340000000     0.684940000000     0.0479022  
H255     H      0.387710000000     0.956200000000     0.689480000000     0.0642452  
H256     H      0.288130000000     0.952960000000     0.665100000000     0.137161   
H257     H      0.591240000000     0.150200000000     0.189740000000     0.0425691  
H258     H      0.620890000000     0.225100000000     0.173990000000     0.0511263  
H259     H      0.656310000000     0.091200000000     0.187820000000     0.00568771 
H260     H      0.727920000000     0.128370000000     0.169750000000     0.0647201  
H261     H      0.570080000000     0.170840000000     0.136210000000     0.0506525  
H262     H      0.641420000000     0.207200000000     0.118980000000     0.0450458  
H263     H      0.705600000000     0.148840000000     0.116520000000     0.063617   
H264     H      0.701780000000     0.049800000000     0.147870000000     0.137325   
H265     H      0.587030000000     0.147080000000     0.362310000000     0.0408147  
H266     H      0.576170000000     0.177210000000     0.439850000000     0.049298   
H267     H      0.644810000000     0.085490000000     0.363110000000     0.00323173 
H268     H      0.676040000000     0.072830000000     0.439560000000     0.0721894  
H269     H      0.603900000000     0.204610000000     0.364750000000     0.0486347  
H270     H      0.633620000000     0.194290000000     0.442680000000     0.0446259  
H271     H      0.695480000000     0.129650000000     0.442350000000     0.067102   
H272     H      0.709080000000     0.082980000000     0.330020000000     0.153503   
H273     H      0.636800000000     0.454660000000     0.200730000000     0.0426185  
H274     H      0.711070000000     0.424490000000     0.185910000000     0.0575669  
H275     H      0.578920000000     0.392440000000     0.200750000000     0.00606711 
H276     H      0.612790000000     0.318940000000     0.183710000000     0.0659344  
H277     H      0.657780000000     0.475710000000     0.147320000000     0.0567352  
H278     H      0.694140000000     0.404140000000     0.130500000000     0.0476679  
H279     H      0.632500000000     0.339040000000     0.129240000000     0.0662057  
H280     H      0.534700000000     0.347130000000     0.163920000000     0.137465   
H281     H      0.839130000000     0.141690000000     0.127410000000     0.0425543  
H282     H      0.870210000000     0.067350000000     0.141990000000     0.0503935  
H283     H      0.903560000000     0.201580000000     0.128280000000     0.00688092 
H284     H      0.975920000000     0.165480000000     0.145280000000     0.0655257  
H285     H      0.819300000000     0.120690000000     0.181310000000     0.0501376  
H286     H      0.891140000000     0.084910000000     0.196940000000     0.0448869  
H287     H      0.954710000000     0.144660000000     0.198830000000     0.0642862  
H288     H      0.948930000000     0.243610000000     0.167630000000     0.138593   
H289     H      0.891060000000     0.461940000000     0.367380000000     0.0430354  
H290     H      0.818920000000     0.427160000000     0.383160000000     0.0520157  
H291     H      0.950570000000     0.402980000000     0.361340000000     0.00684824 
H292     H      0.922550000000     0.326770000000     0.377380000000     0.0759989  
H293     H      0.871180000000     0.479440000000     0.422660000000     0.0505267  
H294     H      0.838640000000     0.405740000000     0.437120000000     0.0454613  
H295     H      0.904360000000     0.343920000000     0.433480000000     0.0693574  
H296     H      0.000000000000     0.359240000000     0.392590000000     0.142248   
H297     H      0.883740000000     0.097410000000     0.371990000000     0.0442372  
H298     H      0.855030000000     0.086630000000     0.450220000000     0.0524613  
H299     H      0.946370000000     0.157580000000     0.371060000000     0.00668812 
H300     H      0.960050000000     0.185640000000     0.449330000000     0.065289   
H301     H      0.826720000000     0.115310000000     0.376140000000     0.0581051  
H302     H      0.839510000000     0.144600000000     0.453730000000     0.0465253  
H303     H      0.903330000000     0.204710000000     0.453820000000     0.0651131  
H304     H      0.966120000000     0.227510000000     0.372230000000     0.140613   
H305     H      0.698550000000     0.396790000000     0.456470000000     0.0427636  
H306     H      0.706030000000     0.427910000000     0.378750000000     0.0524582  
H307     H      0.642410000000     0.334780000000     0.458470000000     0.00626406 
H308     H      0.608820000000     0.321020000000     0.382260000000     0.06334    
H309     H      0.680660000000     0.454060000000     0.455150000000     0.051955   
H310     H      0.648110000000     0.443520000000     0.378290000000     0.0463604  
H311     H      0.587870000000     0.377350000000     0.380420000000     0.0653354  
H312     H      0.573670000000     0.311070000000     0.461670000000     0.140478   
H313     H      0.881570000000     0.339890000000     0.118660000000     0.0434061  
H314     H      0.957960000000     0.366090000000     0.128560000000     0.0596084  
H315     H      0.825600000000     0.405100000000     0.123740000000     0.00589272 
H316     H      0.865130000000     0.476040000000     0.136160000000     0.0648434  
H317     H      0.905020000000     0.317610000000     0.170420000000     0.0576199  
H318     H      0.945590000000     0.387340000000     0.184940000000     0.0479243  
H319     H      0.887710000000     0.456200000000     0.189480000000     0.0642375  
H320     H      0.788130000000     0.452960000000     0.165100000000     0.13711    
H321     H      0.591240000000     0.150200000000     0.689740000000     0.0425601  
H322     H      0.620890000000     0.225100000000     0.673990000000     0.0511442  
H323     H      0.656310000000     0.091200000000     0.687820000000     0.00565488 
H324     H      0.727920000000     0.128370000000     0.669760000000     0.064732   
H325     H      0.570080000000     0.170840000000     0.636210000000     0.0506793  
H326     H      0.641420000000     0.207200000000     0.618980000000     0.0451226  
H327     H      0.705600000000     0.148840000000     0.616520000000     0.0636953  
H328     H      0.701780000000     0.049800000000     0.647870000000     0.137397   
H329     H      0.587030000000     0.147080000000     0.862310000000     0.0408148  
H330     H      0.576170000000     0.177210000000     0.939850000000     0.0493376  
H331     H      0.644810000000     0.085490000000     0.863110000000     0.00322145 
H332     H      0.676040000000     0.072830000000     0.939560000000     0.0722365  
H333     H      0.603900000000     0.204610000000     0.864750000000     0.0486346  
H334     H      0.633620000000     0.194290000000     0.942680000000     0.0446862  
H335     H      0.695480000000     0.129650000000     0.942350000000     0.0671705  
H336     H      0.709080000000     0.082980000000     0.830030000000     0.153584   
H337     H      0.636800000000     0.454660000000     0.700730000000     0.0426076  
H338     H      0.711070000000     0.424490000000     0.685910000000     0.0575767  
H339     H      0.578920000000     0.392440000000     0.700750000000     0.00605703 
H340     H      0.612790000000     0.318940000000     0.683710000000     0.0659485  
H341     H      0.657780000000     0.475710000000     0.647320000000     0.056752   
H342     H      0.694140000000     0.404140000000     0.630500000000     0.0477352  
H343     H      0.632500000000     0.339040000000     0.629240000000     0.0662763  
H344     H      0.534700000000     0.347130000000     0.663920000000     0.13747    
H345     H      0.839130000000     0.141690000000     0.627410000000     0.0426236  
H346     H      0.870210000000     0.067350000000     0.641990000000     0.0504152  
H347     H      0.903560000000     0.201580000000     0.628280000000     0.00695017 
H348     H      0.975920000000     0.165480000000     0.645280000000     0.0655367  
H349     H      0.819300000000     0.120690000000     0.681310000000     0.0501471  
H350     H      0.891140000000     0.084910000000     0.696940000000     0.0448765  
H351     H      0.954710000000     0.144660000000     0.698840000000     0.064254   
H352     H      0.948930000000     0.243610000000     0.667630000000     0.138619   
H353     H      0.891060000000     0.461940000000     0.867380000000     0.043033   
H354     H      0.818920000000     0.427160000000     0.883160000000     0.0520299  
H355     H      0.950570000000     0.402980000000     0.861340000000     0.00683362 
H356     H      0.922550000000     0.326770000000     0.877380000000     0.0760034  
H357     H      0.871180000000     0.479440000000     0.922660000000     0.0505554  
H358     H      0.838640000000     0.405740000000     0.937120000000     0.0455316  
H359     H      0.904360000000     0.343920000000     0.933480000000     0.0694197  
H360     H      0.000000000000     0.359240000000     0.892590000000     0.142239   
H361     H      0.883740000000     0.097410000000     0.871980000000     0.0442361  
H362     H      0.855030000000     0.086630000000     0.950220000000     0.0525155  
H363     H      0.946370000000     0.157580000000     0.871060000000     0.00670639 
H364     H      0.960050000000     0.185640000000     0.949330000000     0.0653433  
H365     H      0.826720000000     0.115310000000     0.876140000000     0.0581131  
H366     H      0.839510000000     0.144600000000     0.953730000000     0.0465983  
H367     H      0.903330000000     0.204710000000     0.953820000000     0.0651909  
H368     H      0.966120000000     0.227510000000     0.872230000000     0.140616   
H369     H      0.698550000000     0.396790000000     0.956470000000     0.042838   
H370     H      0.706030000000     0.427910000000     0.878750000000     0.0524653  
H371     H      0.642410000000     0.334780000000     0.958470000000     0.00633168 
H372     H      0.608820000000     0.321020000000     0.882270000000     0.0633446  
H373     H      0.680660000000     0.454060000000     0.955150000000     0.0520122  
H374     H      0.648110000000     0.443520000000     0.878290000000     0.0463605  
H375     H      0.587870000000     0.377350000000     0.880420000000     0.065337   
H376     H      0.573670000000     0.311070000000     0.961670000000     0.140532   
H377     H      0.881570000000     0.339890000000     0.618660000000     0.0434774  
H378     H      0.957960000000     0.366090000000     0.628560000000     0.0596511  
H379     H      0.825600000000     0.405100000000     0.623740000000     0.00595756 
H380     H      0.865130000000     0.476040000000     0.636160000000     0.0648699  
H381     H      0.905020000000     0.317610000000     0.670420000000     0.0576347  
H382     H      0.945590000000     0.387340000000     0.684940000000     0.0479251  
H383     H      0.887710000000     0.456200000000     0.689480000000     0.0642275  
H384     H      0.788130000000     0.452960000000     0.665100000000     0.137136   
H385     H      0.591240000000     0.650200000000     0.189740000000     0.0425813  
H386     H      0.620890000000     0.725100000000     0.173990000000     0.0511245  
H387     H      0.656310000000     0.591200000000     0.187820000000     0.00570659 
H388     H      0.727920000000     0.628370000000     0.169750000000     0.0647279  
H389     H      0.570080000000     0.670830000000     0.136210000000     0.0506628  
H390     H      0.641420000000     0.707200000000     0.118980000000     0.0450416  
H391     H      0.705600000000     0.648840000000     0.116520000000     0.0636191  
H392     H      0.701780000000     0.549800000000     0.147870000000     0.137361   
H393     H      0.587030000000     0.647080000000     0.362310000000     0.0408236  
H394     H      0.576170000000     0.677210000000     0.439850000000     0.0492998  
H395     H      0.644810000000     0.585490000000     0.363110000000     0.00325558 
H396     H      0.676040000000     0.572830000000     0.439560000000     0.0721948  
H397     H      0.603900000000     0.704610000000     0.364750000000     0.0486353  
H398     H      0.633620000000     0.694290000000     0.442680000000     0.044625   
H399     H      0.695480000000     0.629650000000     0.442350000000     0.0671036  
H400     H      0.709080000000     0.582980000000     0.330020000000     0.153524   
H401     H      0.636800000000     0.954660000000     0.200730000000     0.0426456  
H402     H      0.711070000000     0.924490000000     0.185910000000     0.0575789  
H403     H      0.578920000000     0.892440000000     0.200750000000     0.00607547 
H404     H      0.612790000000     0.818940000000     0.183710000000     0.065934   
H405     H      0.657780000000     0.975710000000     0.147320000000     0.0567748  
H406     H      0.694140000000     0.904140000000     0.130500000000     0.0476732  
H407     H      0.632500000000     0.839040000000     0.129240000000     0.0662046  
H408     H      0.534700000000     0.847130000000     0.163920000000     0.137466   
H409     H      0.839130000000     0.641690000000     0.127410000000     0.0425588  
H410     H      0.870210000000     0.567350000000     0.141990000000     0.0504269  
H411     H      0.903560000000     0.701580000000     0.128280000000     0.00688019 
H412     H      0.975920000000     0.665480000000     0.145280000000     0.0655247  
H413     H      0.819300000000     0.620690000000     0.181310000000     0.0501485  
H414     H      0.891140000000     0.584910000000     0.196940000000     0.0449106  
H415     H      0.954710000000     0.644660000000     0.198830000000     0.064293   
H416     H      0.948930000000     0.743610000000     0.167630000000     0.138593   
H417     H      0.891060000000     0.961940000000     0.367380000000     0.0430623  
H418     H      0.818920000000     0.927160000000     0.383160000000     0.0520239  
H419     H      0.950570000000     0.902980000000     0.361340000000     0.00685728 
H420     H      0.922550000000     0.826770000000     0.377380000000     0.0760037  
H421     H      0.871180000000     0.979440000000     0.422660000000     0.0505623  
H422     H      0.838640000000     0.905740000000     0.437120000000     0.0454658  
H423     H      0.904360000000     0.843930000000     0.433480000000     0.0693671  
H424     H      0.000000000000     0.859240000000     0.392590000000     0.14225    
H425     H      0.883740000000     0.597410000000     0.371990000000     0.0442624  
H426     H      0.855030000000     0.586630000000     0.450220000000     0.0524832  
H427     H      0.946370000000     0.657580000000     0.371060000000     0.00669582 
H428     H      0.960050000000     0.685640000000     0.449330000000     0.0652886  
H429     H      0.826720000000     0.615310000000     0.376140000000     0.0581209  
H430     H      0.839510000000     0.644610000000     0.453730000000     0.0465234  
H431     H      0.903330000000     0.704710000000     0.453820000000     0.0651112  
H432     H      0.966120000000     0.727510000000     0.372230000000     0.140613   
H433     H      0.698550000000     0.896780000000     0.456470000000     0.0427645  
H434     H      0.706030000000     0.927910000000     0.378750000000     0.0524761  
H435     H      0.642410000000     0.834780000000     0.458470000000     0.00626204 
H436     H      0.608820000000     0.821020000000     0.382260000000     0.0633402  
H437     H      0.680660000000     0.954060000000     0.455150000000     0.0519788  
H438     H      0.648110000000     0.943520000000     0.378290000000     0.0463867  
H439     H      0.587870000000     0.877350000000     0.380420000000     0.0653426  
H440     H      0.573670000000     0.811070000000     0.461670000000     0.140476   
H441     H      0.881570000000     0.839890000000     0.118660000000     0.0433823  
H442     H      0.957960000000     0.866090000000     0.128560000000     0.0596093  
H443     H      0.825600000000     0.905100000000     0.123740000000     0.00590413 
H444     H      0.865130000000     0.976040000000     0.136160000000     0.0648839  
H445     H      0.905020000000     0.817610000000     0.170420000000     0.0575938  
H446     H      0.945590000000     0.887340000000     0.184940000000     0.0479295  
H447     H      0.887710000000     0.956200000000     0.189480000000     0.0642668  
H448     H      0.788130000000     0.952960000000     0.165100000000     0.137133   
H449     H      0.591240000000     0.650200000000     0.689740000000     0.0425722  
H450     H      0.620890000000     0.725100000000     0.673990000000     0.0511423  
H451     H      0.656310000000     0.591200000000     0.687820000000     0.00567377 
H452     H      0.727920000000     0.628370000000     0.669760000000     0.0647399  
H453     H      0.570080000000     0.670830000000     0.636210000000     0.0506896  
H454     H      0.641420000000     0.707200000000     0.618980000000     0.0451184  
H455     H      0.705600000000     0.648840000000     0.616520000000     0.0636974  
H456     H      0.701780000000     0.549800000000     0.647870000000     0.137433   
H457     H      0.587030000000     0.647080000000     0.862310000000     0.0408237  
H458     H      0.576170000000     0.677210000000     0.939850000000     0.0493394  
H459     H      0.644810000000     0.585490000000     0.863110000000     0.00324529 
H460     H      0.676040000000     0.572830000000     0.939560000000     0.0722418  
H461     H      0.603900000000     0.704610000000     0.864750000000     0.0486352  
H462     H      0.633620000000     0.694290000000     0.942680000000     0.0446853  
H463     H      0.695480000000     0.629650000000     0.942350000000     0.0671721  
H464     H      0.709080000000     0.582980000000     0.830030000000     0.153604   
H465     H      0.636800000000     0.954660000000     0.700730000000     0.0426347  
H466     H      0.711070000000     0.924490000000     0.685910000000     0.0575887  
H467     H      0.578920000000     0.892440000000     0.700750000000     0.00606538 
H468     H      0.612790000000     0.818940000000     0.683710000000     0.0659482  
H469     H      0.657780000000     0.975710000000     0.647320000000     0.0567917  
H470     H      0.694140000000     0.904140000000     0.630500000000     0.0477405  
H471     H      0.632500000000     0.839040000000     0.629240000000     0.0662752  
H472     H      0.534700000000     0.847130000000     0.663920000000     0.13747    
H473     H      0.839130000000     0.641690000000     0.627410000000     0.0426281  
H474     H      0.870210000000     0.567350000000     0.641990000000     0.0504486  
H475     H      0.903560000000     0.701580000000     0.628280000000     0.00694945 
H476     H      0.975920000000     0.665480000000     0.645280000000     0.0655356  
H477     H      0.819300000000     0.620690000000     0.681310000000     0.0501581  
H478     H      0.891140000000     0.584910000000     0.696940000000     0.0449001  
H479     H      0.954710000000     0.644660000000     0.698840000000     0.0642609  
H480     H      0.948930000000     0.743610000000     0.667630000000     0.138619   
H481     H      0.891060000000     0.961940000000     0.867380000000     0.0430599  
H482     H      0.818920000000     0.927160000000     0.883160000000     0.0520381  
H483     H      0.950570000000     0.902980000000     0.861340000000     0.00684266 
H484     H      0.922550000000     0.826770000000     0.877380000000     0.0760082  
H485     H      0.871180000000     0.979440000000     0.922660000000     0.0505909  
H486     H      0.838640000000     0.905740000000     0.937120000000     0.0455362  
H487     H      0.904360000000     0.843930000000     0.933480000000     0.0694294  
H488     H      0.000000000000     0.859240000000     0.892590000000     0.142241   
H489     H      0.883740000000     0.597410000000     0.871980000000     0.0442613  
H490     H      0.855030000000     0.586630000000     0.950220000000     0.0525373  
H491     H      0.946370000000     0.657580000000     0.871060000000     0.00671409 
H492     H      0.960050000000     0.685640000000     0.949330000000     0.0653429  
H493     H      0.826720000000     0.615310000000     0.876140000000     0.0581289  
H494     H      0.839510000000     0.644610000000     0.953730000000     0.0465964  
H495     H      0.903330000000     0.704710000000     0.953820000000     0.0651889  
H496     H      0.966120000000     0.727510000000     0.872230000000     0.140616   
H497     H      0.698550000000     0.896780000000     0.956470000000     0.0428388  
H498     H      0.706030000000     0.927910000000     0.878750000000     0.0524833  
H499     H      0.642410000000     0.834780000000     0.958470000000     0.00632965 
H500     H      0.608820000000     0.821020000000     0.882270000000     0.0633449  
H501     H      0.680660000000     0.954060000000     0.955150000000     0.052036   
H502     H      0.648110000000     0.943520000000     0.878290000000     0.0463868  
H503     H      0.587870000000     0.877350000000     0.880420000000     0.0653441  
H504     H      0.573670000000     0.811070000000     0.961670000000     0.14053    
H505     H      0.881570000000     0.839890000000     0.618660000000     0.0434537  
H506     H      0.957960000000     0.866090000000     0.628560000000     0.059652   
H507     H      0.825600000000     0.905100000000     0.623740000000     0.00596896 
H508     H      0.865130000000     0.976040000000     0.636160000000     0.0649104  
H509     H      0.905020000000     0.817610000000     0.670420000000     0.0576086  
H510     H      0.945590000000     0.887340000000     0.684940000000     0.0479303  
H511     H      0.887710000000     0.956200000000     0.689480000000     0.0642568  
H512     H      0.788130000000     0.952960000000     0.665100000000     0.137159   
N1       N      0.119770000000     0.117900000000     0.131970000000    -0.176615   
N2       N      0.177060000000     0.179530000000     0.174910000000    -0.156106   
N3       N      0.157320000000     0.155510000000     0.360490000000    -0.181655   
N4       N      0.125110000000     0.124000000000     0.445170000000    -0.156841   
N5       N      0.105010000000     0.426070000000     0.142720000000    -0.175355   
N6       N      0.165940000000     0.367990000000     0.185860000000    -0.154018   
N7       N      0.368160000000     0.174400000000     0.184640000000    -0.175922   
N8       N      0.425950000000     0.113380000000     0.140900000000    -0.155453   
N9       N      0.426220000000     0.432090000000     0.422630000000    -0.178197   
N10      N      0.366800000000     0.372940000000     0.379600000000    -0.155581   
N11      N      0.376530000000     0.167970000000     0.370440000000    -0.176201   
N12      N      0.409420000000     0.134280000000     0.454200000000    -0.156689   
N13      N      0.128210000000     0.404080000000     0.460710000000    -0.176428   
N14      N      0.158220000000     0.373460000000     0.375050000000    -0.156887   
N15      N      0.354940000000     0.369550000000     0.178790000000    -0.175551   
N16      N      0.415840000000     0.424750000000     0.131350000000    -0.153871   
N17      N      0.119770000000     0.117900000000     0.631970000000    -0.176597   
N18      N      0.177060000000     0.179530000000     0.674910000000    -0.156102   
N19      N      0.157320000000     0.155510000000     0.860490000000    -0.181654   
N20      N      0.125110000000     0.124000000000     0.945170000000    -0.156797   
N21      N      0.105010000000     0.426070000000     0.642720000000    -0.175355   
N22      N      0.165940000000     0.367990000000     0.685860000000    -0.154011   
N23      N      0.368160000000     0.174400000000     0.684640000000    -0.175909   
N24      N      0.425950000000     0.113380000000     0.640900000000    -0.155452   
N25      N      0.426220000000     0.432090000000     0.922630000000    -0.178151   
N26      N      0.366800000000     0.372940000000     0.879600000000    -0.155575   
N27      N      0.376530000000     0.167970000000     0.870440000000    -0.176192   
N28      N      0.409420000000     0.134280000000     0.954190000000    -0.156607   
N29      N      0.128210000000     0.404080000000     0.960710000000    -0.176381   
N30      N      0.158220000000     0.373460000000     0.875050000000    -0.156883   
N31      N      0.354940000000     0.369550000000     0.678790000000    -0.175545   
N32      N      0.415840000000     0.424750000000     0.631350000000    -0.153864   
N33      N      0.119770000000     0.617900000000     0.131970000000    -0.176631   
N34      N      0.177060000000     0.679530000000     0.174910000000    -0.156106   
N35      N      0.157320000000     0.655510000000     0.360490000000    -0.181652   
N36      N      0.125110000000     0.624000000000     0.445170000000    -0.156819   
N37      N      0.105010000000     0.926070000000     0.142720000000    -0.175346   
N38      N      0.165940000000     0.867990000000     0.185860000000    -0.154018   
N39      N      0.368160000000     0.674400000000     0.184640000000    -0.175922   
N40      N      0.425950000000     0.613380000000     0.140900000000    -0.15547    
N41      N      0.426220000000     0.932090000000     0.422630000000    -0.178189   
N42      N      0.366800000000     0.872940000000     0.379600000000    -0.155597   
N43      N      0.376530000000     0.667970000000     0.370440000000    -0.176199   
N44      N      0.409420000000     0.634280000000     0.454200000000    -0.15669    
N45      N      0.128210000000     0.904080000000     0.460710000000    -0.176426   
N46      N      0.158220000000     0.873460000000     0.375050000000    -0.156884   
N47      N      0.354940000000     0.869540000000     0.178790000000    -0.175578   
N48      N      0.415840000000     0.924740000000     0.131350000000    -0.153837   
N49      N      0.119770000000     0.617900000000     0.631970000000    -0.176613   
N50      N      0.177060000000     0.679530000000     0.674910000000    -0.156102   
N51      N      0.157320000000     0.655510000000     0.860490000000    -0.181652   
N52      N      0.125110000000     0.624000000000     0.945170000000    -0.156774   
N53      N      0.105010000000     0.926070000000     0.642720000000    -0.175346   
N54      N      0.165940000000     0.867990000000     0.685860000000    -0.154011   
N55      N      0.368160000000     0.674400000000     0.684640000000    -0.175908   
N56      N      0.425950000000     0.613380000000     0.640900000000    -0.155469   
N57      N      0.426220000000     0.932090000000     0.922630000000    -0.178143   
N58      N      0.366800000000     0.872940000000     0.879600000000    -0.155591   
N59      N      0.376530000000     0.667970000000     0.870440000000    -0.176189   
N60      N      0.409420000000     0.634280000000     0.954190000000    -0.156608   
N61      N      0.128210000000     0.904080000000     0.960710000000    -0.176379   
N62      N      0.158220000000     0.873460000000     0.875050000000    -0.15688    
N63      N      0.354940000000     0.869540000000     0.678790000000    -0.175571   
N64      N      0.415840000000     0.924740000000     0.631350000000    -0.15383    
N65      N      0.619770000000     0.117900000000     0.131970000000    -0.176609   
N66      N      0.677060000000     0.179530000000     0.174910000000    -0.156109   
N67      N      0.657320000000     0.155510000000     0.360490000000    -0.181655   
N68      N      0.625110000000     0.124000000000     0.445170000000    -0.156862   
N69      N      0.605010000000     0.426070000000     0.142720000000    -0.175351   
N70      N      0.665940000000     0.367990000000     0.185860000000    -0.15401    
N71      N      0.868160000000     0.174400000000     0.184640000000    -0.175906   
N72      N      0.925950000000     0.113380000000     0.140900000000    -0.155472   
N73      N      0.926220000000     0.432090000000     0.422630000000    -0.178186   
N74      N      0.866800000000     0.372940000000     0.379600000000    -0.155608   
N75      N      0.876530000000     0.167970000000     0.370440000000    -0.176229   
N76      N      0.909420000000     0.134280000000     0.454200000000    -0.156684   
N77      N      0.628210000000     0.404080000000     0.460710000000    -0.176429   
N78      N      0.658220000000     0.373460000000     0.375050000000    -0.15688    
N79      N      0.854940000000     0.369550000000     0.178790000000    -0.17555    
N80      N      0.915840000000     0.424750000000     0.131350000000    -0.153866   
N81      N      0.619770000000     0.117900000000     0.631970000000    -0.17659    
N82      N      0.677060000000     0.179530000000     0.674910000000    -0.156105   
N83      N      0.657320000000     0.155510000000     0.860490000000    -0.181655   
N84      N      0.625110000000     0.124000000000     0.945170000000    -0.156818   
N85      N      0.605010000000     0.426070000000     0.642720000000    -0.175351   
N86      N      0.665940000000     0.367990000000     0.685860000000    -0.154003   
N87      N      0.868160000000     0.174400000000     0.684640000000    -0.175892   
N88      N      0.925950000000     0.113380000000     0.640900000000    -0.155472   
N89      N      0.926220000000     0.432090000000     0.922630000000    -0.17814    
N90      N      0.866800000000     0.372940000000     0.879600000000    -0.155602   
N91      N      0.876530000000     0.167970000000     0.870440000000    -0.176219   
N92      N      0.909420000000     0.134280000000     0.954190000000    -0.156602   
N93      N      0.628210000000     0.404080000000     0.960710000000    -0.176382   
N94      N      0.658220000000     0.373460000000     0.875050000000    -0.156876   
N95      N      0.854940000000     0.369550000000     0.678790000000    -0.175544   
N96      N      0.915840000000     0.424750000000     0.631350000000    -0.153859   
N97      N      0.619770000000     0.617900000000     0.131970000000    -0.176625   
N98      N      0.677060000000     0.679530000000     0.174910000000    -0.156109   
N99      N      0.657320000000     0.655510000000     0.360490000000    -0.181653   
N100     N      0.625110000000     0.624000000000     0.445170000000    -0.15684    
N101     N      0.605010000000     0.926070000000     0.142720000000    -0.175342   
N102     N      0.665940000000     0.867990000000     0.185860000000    -0.15401    
N103     N      0.868160000000     0.674400000000     0.184640000000    -0.175905   
N104     N      0.925950000000     0.613380000000     0.140900000000    -0.15549    
N105     N      0.926220000000     0.932090000000     0.422630000000    -0.178178   
N106     N      0.866800000000     0.872940000000     0.379600000000    -0.155624   
N107     N      0.876530000000     0.667970000000     0.370440000000    -0.176226   
N108     N      0.909420000000     0.634280000000     0.454200000000    -0.156685   
N109     N      0.628210000000     0.904080000000     0.460710000000    -0.176427   
N110     N      0.658220000000     0.873460000000     0.375050000000    -0.156877   
N111     N      0.854940000000     0.869540000000     0.178790000000    -0.175577   
N112     N      0.915840000000     0.924740000000     0.131350000000    -0.153832   
N113     N      0.619770000000     0.617900000000     0.631970000000    -0.176607   
N114     N      0.677060000000     0.679530000000     0.674910000000    -0.156105   
N115     N      0.657320000000     0.655510000000     0.860490000000    -0.181652   
N116     N      0.625110000000     0.624000000000     0.945170000000    -0.156795   
N117     N      0.605010000000     0.926070000000     0.642720000000    -0.175342   
N118     N      0.665940000000     0.867990000000     0.685860000000    -0.154003   
N119     N      0.868160000000     0.674400000000     0.684640000000    -0.175891   
N120     N      0.925950000000     0.613380000000     0.640900000000    -0.155489   
N121     N      0.926220000000     0.932090000000     0.922630000000    -0.178132   
N122     N      0.866800000000     0.872940000000     0.879600000000    -0.155618   
N123     N      0.876530000000     0.667970000000     0.870440000000    -0.176216   
N124     N      0.909420000000     0.634280000000     0.954190000000    -0.156602   
N125     N      0.628210000000     0.904080000000     0.960710000000    -0.176381   
N126     N      0.658220000000     0.873460000000     0.875050000000    -0.156873   
N127     N      0.854940000000     0.869540000000     0.678790000000    -0.17557    
N128     N      0.915840000000     0.924740000000     0.631350000000    -0.153825   
O1       O      0.424300000000     0.483870000000     0.082090000000    -0.365815   
O2       O      0.111200000000     0.058640000000     0.082480000000    -0.345676   
O3       O      0.049930000000     0.431010000000     0.087930000000    -0.342691   
O4       O      0.482080000000     0.109570000000     0.087660000000    -0.366429   
O5       O      0.104060000000     0.481740000000     0.088420000000    -0.361198   
O6       O      0.428460000000     0.058000000000     0.086560000000    -0.361953   
O7       O      0.059700000000     0.112060000000     0.083380000000    -0.366118   
O8       O      0.474510000000     0.429020000000     0.081100000000    -0.356734   
O9       O      0.419870000000     0.069030000000     0.493820000000    -0.362554   
O10      O      0.115190000000     0.471100000000     0.496620000000    -0.366325   
O11      O      0.480410000000     0.433460000000     0.478360000000    -0.345026   
O12      O      0.062750000000     0.115650000000     0.489840000000    -0.365951   
O13      O      0.113840000000     0.061560000000     0.489340000000    -0.362983   
O14      O      0.428170000000     0.486120000000     0.478490000000    -0.369742   
O15      O      0.473940000000     0.120130000000     0.494070000000    -0.364176   
O16      O      0.062260000000     0.419100000000     0.498060000000    -0.333155   
O17      O      0.517750000000     0.521050000000     0.013340000000    -0.58542    
O18      O      0.300140000000     0.363790000000     0.233860000000    -0.347638   
O19      O      0.232390000000     0.182870000000     0.228980000000    -0.36729    
O20      O      0.358720000000     0.234350000000     0.233190000000    -0.343989   
O21      O      0.173270000000     0.309080000000     0.235570000000    -0.362157   
O22      O      0.308910000000     0.179380000000     0.234490000000    -0.363319   
O23      O      0.224820000000     0.362700000000     0.235810000000    -0.355379   
O24      O      0.178130000000     0.233730000000     0.230380000000    -0.364745   
O25      O      0.352510000000     0.311390000000     0.230140000000    -0.365742   
O26      O      0.220110000000     0.366090000000     0.329680000000    -0.363348   
O27      O      0.312480000000     0.177030000000     0.328080000000    -0.363004   
O28      O      0.359640000000     0.314200000000     0.329870000000    -0.359333   
O29      O      0.169020000000     0.221910000000     0.322990000000    -0.369583   
O30      O      0.222670000000     0.170640000000     0.321900000000    -0.354945   
O31      O      0.305640000000     0.365200000000     0.333090000000    -0.364347   
O32      O      0.169850000000     0.311260000000     0.330540000000    -0.366486   
O33      O      0.364350000000     0.229990000000     0.325360000000    -0.339806   
O34      O      0.266090000000     0.270740000000     0.304460000000    -0.586874   
O35      O      0.180990000000     0.065680000000     0.126840000000    -0.260993   
O36      O      0.212970000000     0.096960000000     0.360730000000    -0.271721   
O37      O      0.050310000000     0.366940000000     0.141700000000    -0.258778   
O38      O      0.428710000000     0.227370000000     0.188950000000    -0.260068   
O39      O      0.484620000000     0.376800000000     0.416870000000    -0.25205    
O40      O      0.432990000000     0.225460000000     0.372250000000    -0.260731   
O41      O      0.074290000000     0.344280000000     0.463350000000    -0.251522   
O42      O      0.304430000000     0.431880000000     0.185490000000    -0.261282   
O43      O      0.424300000000     0.483870000000     0.582090000000    -0.365827   
O44      O      0.111200000000     0.058640000000     0.582480000000    -0.345651   
O45      O      0.049930000000     0.431010000000     0.587930000000    -0.342697   
O46      O      0.482080000000     0.109570000000     0.587660000000    -0.366382   
O47      O      0.104060000000     0.481740000000     0.588420000000    -0.361204   
O48      O      0.428460000000     0.058000000000     0.586550000000    -0.361956   
O49      O      0.059700000000     0.112060000000     0.583370000000    -0.366079   
O50      O      0.474510000000     0.429020000000     0.581100000000    -0.356736   
O51      O      0.419870000000     0.069030000000     0.993820000000    -0.36221    
O52      O      0.115190000000     0.471100000000     0.996620000000    -0.365993   
O53      O      0.480410000000     0.433460000000     0.978360000000    -0.344715   
O54      O      0.062750000000     0.115650000000     0.989840000000    -0.365588   
O55      O      0.113840000000     0.061560000000     0.989340000000    -0.362651   
O56      O      0.428170000000     0.486120000000     0.978490000000    -0.369427   
O57      O      0.473940000000     0.120130000000     0.994070000000    -0.363798   
O58      O      0.062260000000     0.419100000000     0.998060000000    -0.332825   
O59      O      0.517750000000     0.521050000000     0.513340000000    -0.585458   
O60      O      0.300140000000     0.363790000000     0.733860000000    -0.347637   
O61      O      0.232390000000     0.182870000000     0.728980000000    -0.367302   
O62      O      0.358720000000     0.234350000000     0.733190000000    -0.343972   
O63      O      0.173270000000     0.309080000000     0.735570000000    -0.362198   
O64      O      0.308910000000     0.179380000000     0.734500000000    -0.36332    
O65      O      0.224820000000     0.362700000000     0.735810000000    -0.355385   
O66      O      0.178130000000     0.233730000000     0.730380000000    -0.364784   
O67      O      0.352510000000     0.311390000000     0.730140000000    -0.365741   
O68      O      0.220110000000     0.366090000000     0.829680000000    -0.36334    
O69      O      0.312480000000     0.177030000000     0.828080000000    -0.362997   
O70      O      0.359640000000     0.314200000000     0.829870000000    -0.35933    
O71      O      0.169020000000     0.221910000000     0.822980000000    -0.36955    
O72      O      0.222670000000     0.170640000000     0.821900000000    -0.354929   
O73      O      0.305640000000     0.365200000000     0.833090000000    -0.364343   
O74      O      0.169850000000     0.311260000000     0.830540000000    -0.366445   
O75      O      0.364350000000     0.229990000000     0.825360000000    -0.339801   
O76      O      0.266090000000     0.270740000000     0.804460000000    -0.586857   
O77      O      0.180990000000     0.065680000000     0.626850000000    -0.261002   
O78      O      0.212970000000     0.096960000000     0.860730000000    -0.271807   
O79      O      0.050310000000     0.366940000000     0.641700000000    -0.258736   
O80      O      0.428710000000     0.227370000000     0.688950000000    -0.260065   
O81      O      0.484620000000     0.376800000000     0.916870000000    -0.251989   
O82      O      0.432990000000     0.225460000000     0.872250000000    -0.260709   
O83      O      0.074290000000     0.344280000000     0.963350000000    -0.25146    
O84      O      0.304430000000     0.431880000000     0.685490000000    -0.261283   
O85      O      0.424300000000     0.983870000000     0.082090000000    -0.365697   
O86      O      0.111200000000     0.558640000000     0.082480000000    -0.345589   
O87      O      0.049930000000     0.931010000000     0.087930000000    -0.342687   
O88      O      0.482080000000     0.609570000000     0.087660000000    -0.36646    
O89      O      0.104060000000     0.981740000000     0.088420000000    -0.361097   
O90      O      0.428460000000     0.558010000000     0.086560000000    -0.362001   
O91      O      0.059700000000     0.612060000000     0.083380000000    -0.366139   
O92      O      0.474510000000     0.929020000000     0.081100000000    -0.35672    
O93      O      0.419870000000     0.569030000000     0.493820000000    -0.36254    
O94      O      0.115190000000     0.971100000000     0.496620000000    -0.366238   
O95      O      0.480410000000     0.933460000000     0.478360000000    -0.34502    
O96      O      0.062750000000     0.615650000000     0.489840000000    -0.365915   
O97      O      0.113840000000     0.561550000000     0.489340000000    -0.362907   
O98      O      0.428170000000     0.986120000000     0.478490000000    -0.369644   
O99      O      0.473940000000     0.620130000000     0.494070000000    -0.364176   
O100     O      0.062260000000     0.919100000000     0.498060000000    -0.333156   
O101     O      0.517750000000     0.021050000000     0.013340000000    -0.585461   
O102     O      0.300140000000     0.863790000000     0.233860000000    -0.347651   
O103     O      0.232390000000     0.682870000000     0.228980000000    -0.367287   
O104     O      0.358720000000     0.734350000000     0.233190000000    -0.343989   
O105     O      0.173270000000     0.809080000000     0.235570000000    -0.362158   
O106     O      0.308910000000     0.679380000000     0.234490000000    -0.363316   
O107     O      0.224820000000     0.862700000000     0.235810000000    -0.355381   
O108     O      0.178130000000     0.733730000000     0.230380000000    -0.364745   
O109     O      0.352510000000     0.811390000000     0.230140000000    -0.365751   
O110     O      0.220110000000     0.866090000000     0.329680000000    -0.363345   
O111     O      0.312480000000     0.677030000000     0.328080000000    -0.363      
O112     O      0.359640000000     0.814200000000     0.329870000000    -0.359349   
O113     O      0.169020000000     0.721910000000     0.322990000000    -0.369582   
O114     O      0.222670000000     0.670640000000     0.321900000000    -0.354942   
O115     O      0.305640000000     0.865190000000     0.333090000000    -0.364419   
O116     O      0.169850000000     0.811260000000     0.330540000000    -0.366486   
O117     O      0.364350000000     0.729990000000     0.325360000000    -0.339805   
O118     O      0.266090000000     0.770740000000     0.304460000000    -0.586876   
O119     O      0.180990000000     0.565680000000     0.126840000000    -0.260972   
O120     O      0.212970000000     0.596960000000     0.360730000000    -0.271705   
O121     O      0.050310000000     0.866940000000     0.141700000000    -0.258777   
O122     O      0.428710000000     0.727370000000     0.188950000000    -0.260067   
O123     O      0.484620000000     0.876800000000     0.416870000000    -0.252048   
O124     O      0.432990000000     0.725460000000     0.372250000000    -0.26073    
O125     O      0.074290000000     0.844280000000     0.463350000000    -0.251523   
O126     O      0.304430000000     0.931880000000     0.185490000000    -0.261269   
O127     O      0.424300000000     0.983870000000     0.582090000000    -0.365709   
O128     O      0.111200000000     0.558640000000     0.582480000000    -0.345564   
O129     O      0.049930000000     0.931010000000     0.587930000000    -0.342693   
O130     O      0.482080000000     0.609570000000     0.587660000000    -0.366413   
O131     O      0.104060000000     0.981740000000     0.588420000000    -0.361103   
O132     O      0.428460000000     0.558010000000     0.586550000000    -0.362004   
O133     O      0.059700000000     0.612060000000     0.583370000000    -0.3661     
O134     O      0.474510000000     0.929020000000     0.581100000000    -0.356722   
O135     O      0.419870000000     0.569030000000     0.993820000000    -0.362196   
O136     O      0.115190000000     0.971100000000     0.996620000000    -0.365906   
O137     O      0.480410000000     0.933460000000     0.978360000000    -0.344709   
O138     O      0.062750000000     0.615650000000     0.989840000000    -0.365552   
O139     O      0.113840000000     0.561550000000     0.989340000000    -0.362575   
O140     O      0.428170000000     0.986120000000     0.978490000000    -0.369329   
O141     O      0.473940000000     0.620130000000     0.994070000000    -0.363797   
O142     O      0.062260000000     0.919100000000     0.998060000000    -0.332826   
O143     O      0.517750000000     0.021050000000     0.513340000000    -0.5855     
O144     O      0.300140000000     0.863790000000     0.733860000000    -0.34765    
O145     O      0.232390000000     0.682870000000     0.728980000000    -0.3673     
O146     O      0.358720000000     0.734350000000     0.733190000000    -0.343972   
O147     O      0.173270000000     0.809080000000     0.735570000000    -0.362199   
O148     O      0.308910000000     0.679380000000     0.734500000000    -0.363317   
O149     O      0.224820000000     0.862700000000     0.735810000000    -0.355387   
O150     O      0.178130000000     0.733730000000     0.730380000000    -0.364784   
O151     O      0.352510000000     0.811390000000     0.730140000000    -0.36575    
O152     O      0.220110000000     0.866090000000     0.829680000000    -0.363337   
O153     O      0.312480000000     0.677030000000     0.828080000000    -0.362993   
O154     O      0.359640000000     0.814200000000     0.829870000000    -0.359346   
O155     O      0.169020000000     0.721910000000     0.822980000000    -0.369549   
O156     O      0.222670000000     0.670640000000     0.821900000000    -0.354926   
O157     O      0.305640000000     0.865190000000     0.833090000000    -0.364414   
O158     O      0.169850000000     0.811260000000     0.830540000000    -0.366446   
O159     O      0.364350000000     0.729990000000     0.825360000000    -0.3398     
O160     O      0.266090000000     0.770740000000     0.804460000000    -0.586859   
O161     O      0.180990000000     0.565680000000     0.626850000000    -0.260982   
O162     O      0.212970000000     0.596960000000     0.860730000000    -0.271791   
O163     O      0.050310000000     0.866940000000     0.641700000000    -0.258735   
O164     O      0.428710000000     0.727370000000     0.688950000000    -0.260064   
O165     O      0.484620000000     0.876800000000     0.916870000000    -0.251987   
O166     O      0.432990000000     0.725460000000     0.872250000000    -0.260708   
O167     O      0.074290000000     0.844280000000     0.963350000000    -0.25146    
O168     O      0.304430000000     0.931880000000     0.685490000000    -0.26127    
O169     O      0.924300000000     0.483870000000     0.082090000000    -0.365853   
O170     O      0.611200000000     0.058640000000     0.082480000000    -0.345675   
O171     O      0.549930000000     0.431010000000     0.087930000000    -0.342669   
O172     O      0.982070000000     0.109570000000     0.087660000000    -0.366383   
O173     O      0.604060000000     0.481740000000     0.088420000000    -0.361197   
O174     O      0.928460000000     0.058000000000     0.086560000000    -0.362022   
O175     O      0.559700000000     0.112060000000     0.083380000000    -0.366088   
O176     O      0.974510000000     0.429020000000     0.081100000000    -0.356616   
O177     O      0.919870000000     0.069030000000     0.493820000000    -0.362601   
O178     O      0.615190000000     0.471100000000     0.496620000000    -0.366325   
O179     O      0.980410000000     0.433460000000     0.478360000000    -0.344914   
O180     O      0.562750000000     0.115650000000     0.489840000000    -0.365863   
O181     O      0.613840000000     0.061560000000     0.489340000000    -0.362995   
O182     O      0.928170000000     0.486120000000     0.478490000000    -0.369775   
O183     O      0.973940000000     0.120130000000     0.494070000000    -0.364063   
O184     O      0.562260000000     0.419100000000     0.498060000000    -0.333141   
O185     O      0.017750000000     0.521050000000     0.013340000000    -0.585439   
O186     O      0.800140000000     0.363790000000     0.233860000000    -0.34764    
O187     O      0.732390000000     0.182870000000     0.228980000000    -0.367296   
O188     O      0.858720000000     0.234350000000     0.233190000000    -0.343983   
O189     O      0.673270000000     0.309080000000     0.235570000000    -0.362193   
O190     O      0.808910000000     0.179380000000     0.234490000000    -0.363319   
O191     O      0.724820000000     0.362700000000     0.235810000000    -0.355384   
O192     O      0.678130000000     0.233730000000     0.230380000000    -0.364777   
O193     O      0.852510000000     0.311390000000     0.230140000000    -0.365737   
O194     O      0.720110000000     0.366090000000     0.329680000000    -0.363357   
O195     O      0.812480000000     0.177030000000     0.328080000000    -0.363008   
O196     O      0.859640000000     0.314200000000     0.329870000000    -0.359345   
O197     O      0.669020000000     0.221910000000     0.322990000000    -0.369625   
O198     O      0.722670000000     0.170640000000     0.321900000000    -0.354953   
O199     O      0.805640000000     0.365200000000     0.333090000000    -0.364273   
O200     O      0.669850000000     0.311260000000     0.330540000000    -0.366526   
O201     O      0.864350000000     0.229990000000     0.325360000000    -0.339803   
O202     O      0.766090000000     0.270740000000     0.304460000000    -0.58684    
O203     O      0.680990000000     0.065680000000     0.126840000000    -0.260993   
O204     O      0.712970000000     0.096960000000     0.360730000000    -0.271723   
O205     O      0.550310000000     0.366940000000     0.141700000000    -0.258743   
O206     O      0.928710000000     0.227370000000     0.188950000000    -0.260055   
O207     O      0.984620000000     0.376800000000     0.416870000000    -0.251844   
O208     O      0.933000000000     0.225460000000     0.372250000000    -0.260838   
O209     O      0.574290000000     0.344280000000     0.463350000000    -0.251497   
O210     O      0.804430000000     0.431880000000     0.185490000000    -0.261283   
O211     O      0.924300000000     0.483870000000     0.582090000000    -0.365864   
O212     O      0.611200000000     0.058640000000     0.582480000000    -0.34565    
O213     O      0.549930000000     0.431010000000     0.587930000000    -0.342674   
O214     O      0.982070000000     0.109570000000     0.587660000000    -0.366336   
O215     O      0.604060000000     0.481740000000     0.588420000000    -0.361203   
O216     O      0.928460000000     0.058000000000     0.586550000000    -0.362024   
O217     O      0.559700000000     0.112060000000     0.583370000000    -0.36605    
O218     O      0.974510000000     0.429020000000     0.581100000000    -0.356619   
O219     O      0.919870000000     0.069030000000     0.993820000000    -0.362256   
O220     O      0.615190000000     0.471100000000     0.996620000000    -0.365992   
O221     O      0.980410000000     0.433460000000     0.978360000000    -0.344603   
O222     O      0.562750000000     0.115650000000     0.989840000000    -0.3655     
O223     O      0.613840000000     0.061560000000     0.989340000000    -0.362663   
O224     O      0.928170000000     0.486120000000     0.978490000000    -0.36946    
O225     O      0.973940000000     0.120130000000     0.994070000000    -0.363684   
O226     O      0.562260000000     0.419100000000     0.998060000000    -0.332811   
O227     O      0.017750000000     0.521050000000     0.513340000000    -0.585478   
O228     O      0.800140000000     0.363790000000     0.733860000000    -0.347639   
O229     O      0.732390000000     0.182870000000     0.728980000000    -0.367308   
O230     O      0.858720000000     0.234350000000     0.733190000000    -0.343966   
O231     O      0.673270000000     0.309080000000     0.735570000000    -0.362233   
O232     O      0.808910000000     0.179380000000     0.734500000000    -0.36332    
O233     O      0.724820000000     0.362700000000     0.735810000000    -0.355389   
O234     O      0.678130000000     0.233730000000     0.730380000000    -0.364816   
O235     O      0.852510000000     0.311390000000     0.730140000000    -0.365736   
O236     O      0.720110000000     0.366090000000     0.829680000000    -0.363349   
O237     O      0.812480000000     0.177030000000     0.828080000000    -0.363001   
O238     O      0.859640000000     0.314200000000     0.829870000000    -0.359342   
O239     O      0.669020000000     0.221910000000     0.822980000000    -0.369591   
O240     O      0.722670000000     0.170640000000     0.821900000000    -0.354938   
O241     O      0.805640000000     0.365200000000     0.833090000000    -0.364268   
O242     O      0.669850000000     0.311260000000     0.830540000000    -0.366486   
O243     O      0.864350000000     0.229990000000     0.825360000000    -0.339798   
O244     O      0.766090000000     0.270740000000     0.804460000000    -0.586824   
O245     O      0.680990000000     0.065680000000     0.626850000000    -0.261003   
O246     O      0.712970000000     0.096960000000     0.860730000000    -0.271808   
O247     O      0.550310000000     0.366940000000     0.641700000000    -0.258701   
O248     O      0.928710000000     0.227370000000     0.688950000000    -0.260052   
O249     O      0.984620000000     0.376800000000     0.916870000000    -0.251783   
O250     O      0.933000000000     0.225460000000     0.872250000000    -0.260816   
O251     O      0.574290000000     0.344280000000     0.963350000000    -0.251434   
O252     O      0.804430000000     0.431880000000     0.685490000000    -0.261283   
O253     O      0.924300000000     0.983870000000     0.082090000000    -0.365735   
O254     O      0.611200000000     0.558640000000     0.082480000000    -0.345588   
O255     O      0.549930000000     0.931010000000     0.087930000000    -0.342665   
O256     O      0.982070000000     0.609570000000     0.087660000000    -0.366414   
O257     O      0.604060000000     0.981740000000     0.088420000000    -0.361096   
O258     O      0.928460000000     0.558010000000     0.086560000000    -0.36207    
O259     O      0.559700000000     0.612060000000     0.083380000000    -0.36611    
O260     O      0.974510000000     0.929020000000     0.081100000000    -0.356602   
O261     O      0.919870000000     0.569030000000     0.493820000000    -0.362587   
O262     O      0.615190000000     0.971100000000     0.496620000000    -0.366238   
O263     O      0.980410000000     0.933460000000     0.478360000000    -0.344908   
O264     O      0.562750000000     0.615650000000     0.489840000000    -0.365827   
O265     O      0.613840000000     0.561550000000     0.489340000000    -0.36292    
O266     O      0.928170000000     0.986120000000     0.478490000000    -0.369677   
O267     O      0.973940000000     0.620130000000     0.494070000000    -0.364062   
O268     O      0.562260000000     0.919100000000     0.498060000000    -0.333142   
O269     O      0.017750000000     0.021050000000     0.013340000000    -0.58548    
O270     O      0.800140000000     0.863790000000     0.233860000000    -0.347653   
O271     O      0.732390000000     0.682870000000     0.228980000000    -0.367293   
O272     O      0.858720000000     0.734350000000     0.233190000000    -0.343984   
O273     O      0.673270000000     0.809080000000     0.235570000000    -0.362194   
O274     O      0.808910000000     0.679380000000     0.234490000000    -0.363316   
O275     O      0.724820000000     0.862700000000     0.235810000000    -0.355386   
O276     O      0.678130000000     0.733730000000     0.230380000000    -0.364777   
O277     O      0.852510000000     0.811390000000     0.230140000000    -0.365746   
O278     O      0.720110000000     0.866090000000     0.329680000000    -0.363354   
O279     O      0.812480000000     0.677030000000     0.328080000000    -0.363004   
O280     O      0.859640000000     0.814200000000     0.329870000000    -0.359361   
O281     O      0.669020000000     0.721910000000     0.322990000000    -0.369624   
O282     O      0.722670000000     0.670640000000     0.321900000000    -0.35495    
O283     O      0.805640000000     0.865190000000     0.333090000000    -0.364344   
O284     O      0.669850000000     0.811260000000     0.330540000000    -0.366526   
O285     O      0.864350000000     0.729990000000     0.325360000000    -0.339802   
O286     O      0.766090000000     0.770740000000     0.304460000000    -0.586842   
O287     O      0.680990000000     0.565680000000     0.126840000000    -0.260973   
O288     O      0.712970000000     0.596960000000     0.360730000000    -0.271707   
O289     O      0.550310000000     0.866940000000     0.141700000000    -0.258742   
O290     O      0.928710000000     0.727370000000     0.188950000000    -0.260054   
O291     O      0.984620000000     0.876800000000     0.416870000000    -0.251842   
O292     O      0.933000000000     0.725460000000     0.372250000000    -0.260837   
O293     O      0.574290000000     0.844280000000     0.463350000000    -0.251498   
O294     O      0.804430000000     0.931880000000     0.185490000000    -0.26127    
O295     O      0.924300000000     0.983870000000     0.582090000000    -0.365747   
O296     O      0.611200000000     0.558640000000     0.582480000000    -0.345563   
O297     O      0.549930000000     0.931010000000     0.587930000000    -0.34267    
O298     O      0.982070000000     0.609570000000     0.587660000000    -0.366367   
O299     O      0.604060000000     0.981740000000     0.588420000000    -0.361102   
O300     O      0.928460000000     0.558010000000     0.586550000000    -0.362073   
O301     O      0.559700000000     0.612060000000     0.583370000000    -0.366071   
O302     O      0.974510000000     0.929020000000     0.581100000000    -0.356604   
O303     O      0.919870000000     0.569030000000     0.993820000000    -0.362242   
O304     O      0.615190000000     0.971100000000     0.996620000000    -0.365906   
O305     O      0.980410000000     0.933460000000     0.978360000000    -0.344597   
O306     O      0.562750000000     0.615650000000     0.989840000000    -0.365463   
O307     O      0.613840000000     0.561550000000     0.989340000000    -0.362588   
O308     O      0.928170000000     0.986120000000     0.978490000000    -0.369362   
O309     O      0.973940000000     0.620130000000     0.994070000000    -0.363684   
O310     O      0.562260000000     0.919100000000     0.998060000000    -0.332812   
O311     O      0.017750000000     0.021050000000     0.513340000000    -0.585519   
O312     O      0.800140000000     0.863790000000     0.733860000000    -0.347652   
O313     O      0.732390000000     0.682870000000     0.728980000000    -0.367305   
O314     O      0.858720000000     0.734350000000     0.733190000000    -0.343967   
O315     O      0.673270000000     0.809080000000     0.735570000000    -0.362235   
O316     O      0.808910000000     0.679380000000     0.734500000000    -0.363317   
O317     O      0.724820000000     0.862700000000     0.735810000000    -0.355391   
O318     O      0.678130000000     0.733730000000     0.730380000000    -0.364816   
O319     O      0.852510000000     0.811390000000     0.730140000000    -0.365746   
O320     O      0.720110000000     0.866090000000     0.829680000000    -0.363346   
O321     O      0.812480000000     0.677030000000     0.828080000000    -0.362997   
O322     O      0.859640000000     0.814200000000     0.829870000000    -0.359358   
O323     O      0.669020000000     0.721910000000     0.822980000000    -0.369591   
O324     O      0.722670000000     0.670640000000     0.821900000000    -0.354934   
O325     O      0.805640000000     0.865190000000     0.833090000000    -0.36434    
O326     O      0.669850000000     0.811260000000     0.830540000000    -0.366486   
O327     O      0.864350000000     0.729990000000     0.825360000000    -0.339798   
O328     O      0.766090000000     0.770740000000     0.804460000000    -0.586826   
O329     O      0.680990000000     0.565680000000     0.626850000000    -0.260982   
O330     O      0.712970000000     0.596960000000     0.860730000000    -0.271793   
O331     O      0.550310000000     0.866940000000     0.641700000000    -0.2587     
O332     O      0.928710000000     0.727370000000     0.688950000000    -0.260051   
O333     O      0.984620000000     0.876800000000     0.916870000000    -0.251781   
O334     O      0.933000000000     0.725460000000     0.872250000000    -0.260816   
O335     O      0.574290000000     0.844280000000     0.963350000000    -0.251435   
O336     O      0.804430000000     0.931880000000     0.685490000000    -0.26127    


