data_structure

_audit_creation_method RASPA-1.0
_audit_creation_date 2023-5-19
_audit_author_name 'Poobodin Mano'

_cell_length_a    30.4875
_cell_length_b    30.7684
_cell_length_c    28.9656
_cell_angle_alpha 90
_cell_angle_beta  90
_cell_angle_gamma 90
_cell_volume      27171.2

_symmetry_cell_setting          triclinic
_symmetry_space_group_name_Hall 'P 1'
_symmetry_space_group_name_H-M  'P 1'
_symmetry_Int_Tables_number     1

_symmetry_equiv_pos_as_xyz 'x,y,z'

loop_
_atom_site_label
_atom_site_type_symbol
_atom_site_fract_x
_atom_site_fract_y
_atom_site_fract_z
_atom_site_charge
C1       C      0.422480000000     0.423150000000     0.088560000000     0.400043   
C2       C      0.083470000000     0.089490000000     0.095440000000     0.399179   
C3       C      0.082630000000     0.425190000000     0.097860000000     0.403102   
C4       C      0.427180000000     0.080630000000     0.100270000000     0.397459   
C5       C      0.426180000000     0.082560000000     0.477640000000     0.401002   
C6       C      0.083290000000     0.431970000000     0.476260000000     0.392518   
C7       C      0.434640000000     0.434040000000     0.466790000000     0.391792   
C8       C      0.082910000000     0.080310000000     0.476250000000     0.394522   
C9       C      0.329350000000     0.325960000000     0.216480000000     0.396285   
C10      C      0.180280000000     0.184320000000     0.223350000000     0.391144   
C11      C      0.334410000000     0.175080000000     0.230240000000     0.397317   
C12      C      0.180160000000     0.330860000000     0.225140000000     0.394383   
C13      C      0.180830000000     0.337570000000     0.348540000000     0.401025   
C14      C      0.333560000000     0.178560000000     0.348600000000     0.400709   
C15      C      0.342260000000     0.337990000000     0.337120000000     0.401209   
C16      C      0.176780000000     0.177210000000     0.347360000000     0.397099   
C17      C      0.171630000000     0.123580000000     0.173230000000     0.0302055  
C18      C      0.118340000000     0.178810000000     0.173440000000     0.0166209  
C19      C      0.146900000000     0.100180000000     0.141260000000     0.0299407  
C20      C      0.093320000000     0.155760000000     0.140930000000     0.0677824  
C21      C      0.112300000000     0.164530000000     0.392130000000     0.0313874  
C22      C      0.171610000000     0.115940000000     0.397120000000     0.0173495  
C23      C      0.089180000000     0.139700000000     0.424380000000     0.0290626  
C24      C      0.149200000000     0.091340000000     0.430320000000     0.0681331  
C25      C      0.171060000000     0.391770000000     0.175440000000     0.0311664  
C26      C      0.117160000000     0.337080000000     0.177160000000     0.0167857  
C27      C      0.146050000000     0.415060000000     0.143690000000     0.0306488  
C28      C      0.091750000000     0.360130000000     0.145160000000     0.0685643  
C29      C      0.360190000000     0.097720000000     0.138440000000     0.03139    
C30      C      0.426290000000     0.129420000000     0.163790000000     0.0170925  
C31      C      0.337130000000     0.121530000000     0.171540000000     0.0316208  
C32      C      0.403730000000     0.151370000000     0.198830000000     0.0715727  
C33      C      0.375040000000     0.426530000000     0.414070000000     0.030702   
C34      C      0.432180000000     0.375260000000     0.413380000000     0.0167728  
C35      C      0.352620000000     0.402310000000     0.380860000000     0.0289135  
C36      C      0.409950000000     0.350640000000     0.380040000000     0.0689771  
C37      C      0.398880000000     0.164370000000     0.390940000000     0.0316852  
C38      C      0.335790000000     0.121950000000     0.404080000000     0.0172342  
C39      C      0.421640000000     0.140110000000     0.423730000000     0.0297883  
C40      C      0.357930000000     0.098140000000     0.437870000000     0.0696561  
C41      C      0.091680000000     0.372180000000     0.424810000000     0.0310992  
C42      C      0.148060000000     0.423940000000     0.431070000000     0.0169878  
C43      C      0.116650000000     0.348820000000     0.393040000000     0.0304358  
C44      C      0.173450000000     0.400820000000     0.399010000000     0.0686957  
C45      C      0.359330000000     0.412330000000     0.135630000000     0.0314819  
C46      C      0.410800000000     0.356010000000     0.127200000000     0.016911   
C47      C      0.336210000000     0.387330000000     0.167580000000     0.030076   
C48      C      0.387890000000     0.330620000000     0.159250000000     0.0670914  
C49      C      0.422480000000     0.423150000000     0.588560000000     0.400127   
C50      C      0.083470000000     0.089490000000     0.595450000000     0.399204   
C51      C      0.082630000000     0.425190000000     0.597860000000     0.403182   
C52      C      0.427180000000     0.080630000000     0.600270000000     0.397526   
C53      C      0.426180000000     0.082560000000     0.977640000000     0.400943   
C54      C      0.083290000000     0.431970000000     0.976260000000     0.392434   
C55      C      0.434640000000     0.434040000000     0.966790000000     0.391755   
C56      C      0.082910000000     0.080310000000     0.976250000000     0.394465   
C57      C      0.329350000000     0.325960000000     0.716470000000     0.396334   
C58      C      0.180280000000     0.184320000000     0.723350000000     0.391183   
C59      C      0.334410000000     0.175080000000     0.730240000000     0.397323   
C60      C      0.180160000000     0.330860000000     0.725140000000     0.394392   
C61      C      0.180830000000     0.337570000000     0.848540000000     0.401036   
C62      C      0.333560000000     0.178560000000     0.848600000000     0.400717   
C63      C      0.342260000000     0.337990000000     0.837130000000     0.401225   
C64      C      0.176780000000     0.177210000000     0.847360000000     0.397107   
C65      C      0.171630000000     0.123580000000     0.673230000000     0.0302255  
C66      C      0.118340000000     0.178810000000     0.673440000000     0.0166351  
C67      C      0.146900000000     0.100180000000     0.641260000000     0.0299732  
C68      C      0.093320000000     0.155760000000     0.640930000000     0.0678068  
C69      C      0.112300000000     0.164530000000     0.892130000000     0.031406   
C70      C      0.171610000000     0.115940000000     0.897120000000     0.0173713  
C71      C      0.089180000000     0.139700000000     0.924380000000     0.0290902  
C72      C      0.149200000000     0.091340000000     0.930330000000     0.0681562  
C73      C      0.171060000000     0.391770000000     0.675440000000     0.0311836  
C74      C      0.117160000000     0.337080000000     0.677160000000     0.0168006  
C75      C      0.146050000000     0.415060000000     0.643690000000     0.0306709  
C76      C      0.091750000000     0.360130000000     0.645170000000     0.0685579  
C77      C      0.360190000000     0.097720000000     0.638440000000     0.031407   
C78      C      0.426290000000     0.129420000000     0.663790000000     0.0171098  
C79      C      0.337130000000     0.121530000000     0.671540000000     0.0316422  
C80      C      0.403730000000     0.151370000000     0.698830000000     0.0715776  
C81      C      0.375040000000     0.426530000000     0.914070000000     0.0307236  
C82      C      0.432180000000     0.375260000000     0.913380000000     0.0167944  
C83      C      0.352620000000     0.402310000000     0.880860000000     0.0289247  
C84      C      0.409950000000     0.350640000000     0.880040000000     0.0689948  
C85      C      0.398880000000     0.164370000000     0.890940000000     0.0317045  
C86      C      0.335790000000     0.121950000000     0.904080000000     0.0172596  
C87      C      0.421640000000     0.140110000000     0.923730000000     0.0298126  
C88      C      0.357930000000     0.098140000000     0.937870000000     0.0696475  
C89      C      0.091680000000     0.372180000000     0.924810000000     0.0311254  
C90      C      0.148060000000     0.423940000000     0.931070000000     0.0170084  
C91      C      0.116650000000     0.348820000000     0.893040000000     0.030456   
C92      C      0.173450000000     0.400820000000     0.899010000000     0.0687164  
C93      C      0.359330000000     0.412330000000     0.635620000000     0.0315328  
C94      C      0.410800000000     0.356010000000     0.627200000000     0.0169463  
C95      C      0.336210000000     0.387330000000     0.667580000000     0.0300919  
C96      C      0.387890000000     0.330620000000     0.659240000000     0.0670814  
C97      C      0.422480000000     0.923150000000     0.088560000000     0.400037   
C98      C      0.083470000000     0.589490000000     0.095440000000     0.399183   
C99      C      0.082630000000     0.925190000000     0.097860000000     0.403098   
C100     C      0.427180000000     0.580630000000     0.100270000000     0.397505   
C101     C      0.426180000000     0.582560000000     0.477640000000     0.401006   
C102     C      0.083290000000     0.931970000000     0.476260000000     0.392514   
C103     C      0.434640000000     0.934040000000     0.466790000000     0.391789   
C104     C      0.082910000000     0.580310000000     0.476250000000     0.394527   
C105     C      0.329350000000     0.825970000000     0.216480000000     0.396278   
C106     C      0.180280000000     0.684320000000     0.223350000000     0.391146   
C107     C      0.334410000000     0.675080000000     0.230240000000     0.397319   
C108     C      0.180160000000     0.830860000000     0.225140000000     0.394403   
C109     C      0.180830000000     0.837570000000     0.348540000000     0.401045   
C110     C      0.333560000000     0.678560000000     0.348600000000     0.400711   
C111     C      0.342260000000     0.837990000000     0.337120000000     0.401229   
C112     C      0.176780000000     0.677220000000     0.347360000000     0.397134   
C113     C      0.171630000000     0.623580000000     0.173230000000     0.03021    
C114     C      0.118340000000     0.678810000000     0.173440000000     0.0166224  
C115     C      0.146900000000     0.600180000000     0.141260000000     0.0299447  
C116     C      0.093320000000     0.655760000000     0.140930000000     0.067784   
C117     C      0.112300000000     0.664530000000     0.392130000000     0.0313743  
C118     C      0.171610000000     0.615930000000     0.397120000000     0.0172918  
C119     C      0.089180000000     0.639700000000     0.424380000000     0.0290738  
C120     C      0.149200000000     0.591340000000     0.430320000000     0.0681569  
C121     C      0.171060000000     0.891770000000     0.175440000000     0.0311654  
C122     C      0.117160000000     0.837080000000     0.177160000000     0.0167866  
C123     C      0.146050000000     0.915060000000     0.143690000000     0.0306699  
C124     C      0.091750000000     0.860130000000     0.145160000000     0.0685674  
C125     C      0.360190000000     0.597720000000     0.138440000000     0.0314161  
C126     C      0.426290000000     0.629430000000     0.163790000000     0.0170315  
C127     C      0.337130000000     0.621530000000     0.171540000000     0.0316188  
C128     C      0.403730000000     0.651370000000     0.198830000000     0.0715989  
C129     C      0.375040000000     0.926530000000     0.414070000000     0.0307056  
C130     C      0.432180000000     0.875260000000     0.413380000000     0.016776   
C131     C      0.352620000000     0.902310000000     0.380860000000     0.0289214  
C132     C      0.409950000000     0.850640000000     0.380040000000     0.0689787  
C133     C      0.398880000000     0.664360000000     0.390940000000     0.0317185  
C134     C      0.335790000000     0.621950000000     0.404080000000     0.0172404  
C135     C      0.421640000000     0.640110000000     0.423730000000     0.0297691  
C136     C      0.357930000000     0.598140000000     0.437870000000     0.0696538  
C137     C      0.091680000000     0.872180000000     0.424810000000     0.0311022  
C138     C      0.148060000000     0.923940000000     0.431070000000     0.0169933  
C139     C      0.116650000000     0.848820000000     0.393040000000     0.0304377  
C140     C      0.173450000000     0.900820000000     0.399010000000     0.0686979  
C141     C      0.359330000000     0.912330000000     0.135630000000     0.031487   
C142     C      0.410800000000     0.856010000000     0.127200000000     0.016909   
C143     C      0.336210000000     0.887330000000     0.167580000000     0.0300783  
C144     C      0.387890000000     0.830620000000     0.159250000000     0.0671025  
C145     C      0.422480000000     0.923150000000     0.588560000000     0.400122   
C146     C      0.083470000000     0.589490000000     0.595450000000     0.399208   
C147     C      0.082630000000     0.925190000000     0.597860000000     0.403178   
C148     C      0.427180000000     0.580630000000     0.600270000000     0.397572   
C149     C      0.426180000000     0.582560000000     0.977640000000     0.400947   
C150     C      0.083290000000     0.931970000000     0.976260000000     0.392431   
C151     C      0.434640000000     0.934040000000     0.966790000000     0.391752   
C152     C      0.082910000000     0.580310000000     0.976250000000     0.394471   
C153     C      0.329350000000     0.825970000000     0.716470000000     0.396327   
C154     C      0.180280000000     0.684320000000     0.723350000000     0.391185   
C155     C      0.334410000000     0.675080000000     0.730240000000     0.397325   
C156     C      0.180160000000     0.830860000000     0.725140000000     0.394412   
C157     C      0.180830000000     0.837570000000     0.848540000000     0.401056   
C158     C      0.333560000000     0.678560000000     0.848600000000     0.400719   
C159     C      0.342260000000     0.837990000000     0.837130000000     0.401245   
C160     C      0.176780000000     0.677220000000     0.847360000000     0.397142   
C161     C      0.171630000000     0.623580000000     0.673230000000     0.03023    
C162     C      0.118340000000     0.678810000000     0.673440000000     0.0166366  
C163     C      0.146900000000     0.600180000000     0.641260000000     0.0299772  
C164     C      0.093320000000     0.655760000000     0.640930000000     0.0678083  
C165     C      0.112300000000     0.664530000000     0.892130000000     0.0313929  
C166     C      0.171610000000     0.615930000000     0.897120000000     0.0173136  
C167     C      0.089180000000     0.639700000000     0.924380000000     0.0291014  
C168     C      0.149200000000     0.591340000000     0.930330000000     0.06818    
C169     C      0.171060000000     0.891770000000     0.675440000000     0.0311826  
C170     C      0.117160000000     0.837080000000     0.677160000000     0.0168015  
C171     C      0.146050000000     0.915060000000     0.643690000000     0.030692   
C172     C      0.091750000000     0.860130000000     0.645170000000     0.068561   
C173     C      0.360190000000     0.597720000000     0.638440000000     0.0314332  
C174     C      0.426290000000     0.629430000000     0.663790000000     0.0170489  
C175     C      0.337130000000     0.621530000000     0.671540000000     0.0316402  
C176     C      0.403730000000     0.651370000000     0.698830000000     0.0716037  
C177     C      0.375040000000     0.926530000000     0.914070000000     0.0307272  
C178     C      0.432180000000     0.875260000000     0.913380000000     0.0167976  
C179     C      0.352620000000     0.902310000000     0.880860000000     0.0289325  
C180     C      0.409950000000     0.850640000000     0.880040000000     0.0689964  
C181     C      0.398880000000     0.664360000000     0.890940000000     0.0317379  
C182     C      0.335790000000     0.621950000000     0.904080000000     0.0172658  
C183     C      0.421640000000     0.640110000000     0.923730000000     0.0297934  
C184     C      0.357930000000     0.598140000000     0.937870000000     0.0696452  
C185     C      0.091680000000     0.872180000000     0.924810000000     0.0311284  
C186     C      0.148060000000     0.923940000000     0.931070000000     0.0170139  
C187     C      0.116650000000     0.848820000000     0.893040000000     0.0304579  
C188     C      0.173450000000     0.900820000000     0.899010000000     0.0687186  
C189     C      0.359330000000     0.912330000000     0.635620000000     0.0315378  
C190     C      0.410800000000     0.856010000000     0.627200000000     0.0169442  
C191     C      0.336210000000     0.887330000000     0.667580000000     0.0300942  
C192     C      0.387890000000     0.830620000000     0.659240000000     0.0670925  
C193     C      0.922480000000     0.423150000000     0.088560000000     0.400017   
C194     C      0.583470000000     0.089490000000     0.095440000000     0.399324   
C195     C      0.582630000000     0.425190000000     0.097860000000     0.403106   
C196     C      0.927180000000     0.080630000000     0.100270000000     0.39743    
C197     C      0.926180000000     0.082560000000     0.477640000000     0.400831   
C198     C      0.583290000000     0.431970000000     0.476260000000     0.392524   
C199     C      0.934640000000     0.434040000000     0.466790000000     0.391766   
C200     C      0.582910000000     0.080310000000     0.476250000000     0.39462    
C201     C      0.829350000000     0.325960000000     0.216480000000     0.396285   
C202     C      0.680290000000     0.184320000000     0.223350000000     0.391175   
C203     C      0.834410000000     0.175080000000     0.230240000000     0.397319   
C204     C      0.680160000000     0.330860000000     0.225140000000     0.394384   
C205     C      0.680820000000     0.337570000000     0.348540000000     0.40099    
C206     C      0.833560000000     0.178560000000     0.348600000000     0.400847   
C207     C      0.842260000000     0.337990000000     0.337120000000     0.401139   
C208     C      0.676780000000     0.177210000000     0.347360000000     0.397101   
C209     C      0.671630000000     0.123580000000     0.173230000000     0.030194   
C210     C      0.618340000000     0.178810000000     0.173440000000     0.0166254  
C211     C      0.646900000000     0.100180000000     0.141260000000     0.0299511  
C212     C      0.593320000000     0.155760000000     0.140930000000     0.0677857  
C213     C      0.612300000000     0.164530000000     0.392130000000     0.0313917  
C214     C      0.671610000000     0.115940000000     0.397120000000     0.0173499  
C215     C      0.589180000000     0.139700000000     0.424380000000     0.0290721  
C216     C      0.649200000000     0.091340000000     0.430320000000     0.068139   
C217     C      0.671060000000     0.391770000000     0.175440000000     0.031182   
C218     C      0.617160000000     0.337080000000     0.177160000000     0.0168103  
C219     C      0.646060000000     0.415060000000     0.143690000000     0.0305903  
C220     C      0.591750000000     0.360130000000     0.145160000000     0.0685535  
C221     C      0.860190000000     0.097720000000     0.138440000000     0.0313859  
C222     C      0.926290000000     0.129420000000     0.163790000000     0.0170786  
C223     C      0.837130000000     0.121530000000     0.171540000000     0.0316269  
C224     C      0.903720000000     0.151370000000     0.198830000000     0.071624   
C225     C      0.875030000000     0.426530000000     0.414070000000     0.0306059  
C226     C      0.932180000000     0.375260000000     0.413380000000     0.0167572  
C227     C      0.852630000000     0.402310000000     0.380860000000     0.0289947  
C228     C      0.909940000000     0.350640000000     0.380040000000     0.0690273  
C229     C      0.898880000000     0.164370000000     0.390940000000     0.0316513  
C230     C      0.835790000000     0.121950000000     0.404080000000     0.0172834  
C231     C      0.921640000000     0.140110000000     0.423730000000     0.0297998  
C232     C      0.857930000000     0.098140000000     0.437870000000     0.0696362  
C233     C      0.591680000000     0.372180000000     0.424810000000     0.0311069  
C234     C      0.648060000000     0.423940000000     0.431070000000     0.0169875  
C235     C      0.616650000000     0.348820000000     0.393040000000     0.0304377  
C236     C      0.673450000000     0.400820000000     0.399010000000     0.0687066  
C237     C      0.859330000000     0.412330000000     0.135630000000     0.0314841  
C238     C      0.910800000000     0.356010000000     0.127200000000     0.0169164  
C239     C      0.836210000000     0.387330000000     0.167580000000     0.0300786  
C240     C      0.887890000000     0.330620000000     0.159250000000     0.0670967  
C241     C      0.922480000000     0.423150000000     0.588560000000     0.400101   
C242     C      0.583470000000     0.089490000000     0.595450000000     0.399348   
C243     C      0.582630000000     0.425190000000     0.597860000000     0.403186   
C244     C      0.927180000000     0.080630000000     0.600270000000     0.397497   
C245     C      0.926180000000     0.082560000000     0.977640000000     0.400772   
C246     C      0.583290000000     0.431970000000     0.976260000000     0.392441   
C247     C      0.934640000000     0.434040000000     0.966790000000     0.391729   
C248     C      0.582910000000     0.080310000000     0.976250000000     0.394563   
C249     C      0.829350000000     0.325960000000     0.716470000000     0.396334   
C250     C      0.680290000000     0.184320000000     0.723350000000     0.391214   
C251     C      0.834410000000     0.175080000000     0.730240000000     0.397326   
C252     C      0.680160000000     0.330860000000     0.725140000000     0.394393   
C253     C      0.680820000000     0.337570000000     0.848540000000     0.401001   
C254     C      0.833560000000     0.178560000000     0.848600000000     0.400855   
C255     C      0.842260000000     0.337990000000     0.837130000000     0.401155   
C256     C      0.676780000000     0.177210000000     0.847360000000     0.397109   
C257     C      0.671630000000     0.123580000000     0.673230000000     0.030214   
C258     C      0.618340000000     0.178810000000     0.673440000000     0.0166397  
C259     C      0.646900000000     0.100180000000     0.641260000000     0.0299836  
C260     C      0.593320000000     0.155760000000     0.640930000000     0.0678101  
C261     C      0.612300000000     0.164530000000     0.892130000000     0.0314102  
C262     C      0.671610000000     0.115940000000     0.897120000000     0.0173717  
C263     C      0.589180000000     0.139700000000     0.924380000000     0.0290997  
C264     C      0.649200000000     0.091340000000     0.930330000000     0.0681621  
C265     C      0.671060000000     0.391770000000     0.675440000000     0.0311992  
C266     C      0.617160000000     0.337080000000     0.677160000000     0.0168252  
C267     C      0.646060000000     0.415060000000     0.643690000000     0.0306123  
C268     C      0.591750000000     0.360130000000     0.645170000000     0.068547   
C269     C      0.860190000000     0.097720000000     0.638440000000     0.031403   
C270     C      0.926290000000     0.129420000000     0.663790000000     0.0170959  
C271     C      0.837130000000     0.121530000000     0.671540000000     0.0316483  
C272     C      0.903720000000     0.151370000000     0.698830000000     0.0716289  
C273     C      0.875030000000     0.426530000000     0.914070000000     0.0306275  
C274     C      0.932180000000     0.375260000000     0.913380000000     0.0167788  
C275     C      0.852630000000     0.402310000000     0.880860000000     0.0290058  
C276     C      0.909940000000     0.350640000000     0.880040000000     0.069045   
C277     C      0.898880000000     0.164370000000     0.890940000000     0.0316707  
C278     C      0.835790000000     0.121950000000     0.904080000000     0.0173088  
C279     C      0.921640000000     0.140110000000     0.923730000000     0.0298241  
C280     C      0.857930000000     0.098140000000     0.937870000000     0.0696276  
C281     C      0.591680000000     0.372180000000     0.924810000000     0.0311331  
C282     C      0.648060000000     0.423940000000     0.931070000000     0.0170081  
C283     C      0.616650000000     0.348820000000     0.893040000000     0.030458   
C284     C      0.673450000000     0.400820000000     0.899010000000     0.0687273  
C285     C      0.859330000000     0.412330000000     0.635620000000     0.0315349  
C286     C      0.910800000000     0.356010000000     0.627200000000     0.0169516  
C287     C      0.836210000000     0.387330000000     0.667580000000     0.0300944  
C288     C      0.887890000000     0.330620000000     0.659240000000     0.0670866  
C289     C      0.922480000000     0.923150000000     0.088560000000     0.400012   
C290     C      0.583470000000     0.589490000000     0.095440000000     0.399328   
C291     C      0.582630000000     0.925190000000     0.097860000000     0.403102   
C292     C      0.927180000000     0.580630000000     0.100270000000     0.397476   
C293     C      0.926180000000     0.582560000000     0.477640000000     0.400835   
C294     C      0.583290000000     0.931970000000     0.476260000000     0.39252    
C295     C      0.934640000000     0.934040000000     0.466790000000     0.391763   
C296     C      0.582910000000     0.580310000000     0.476250000000     0.394625   
C297     C      0.829350000000     0.825970000000     0.216480000000     0.396278   
C298     C      0.680290000000     0.684320000000     0.223350000000     0.391176   
C299     C      0.834410000000     0.675080000000     0.230240000000     0.397321   
C300     C      0.680160000000     0.830860000000     0.225140000000     0.394404   
C301     C      0.680820000000     0.837570000000     0.348540000000     0.40101    
C302     C      0.833560000000     0.678560000000     0.348600000000     0.40085    
C303     C      0.842260000000     0.837990000000     0.337120000000     0.401159   
C304     C      0.676780000000     0.677220000000     0.347360000000     0.397136   
C305     C      0.671630000000     0.623580000000     0.173230000000     0.0301984  
C306     C      0.618340000000     0.678810000000     0.173440000000     0.016627   
C307     C      0.646900000000     0.600180000000     0.141260000000     0.0299551  
C308     C      0.593320000000     0.655760000000     0.140930000000     0.0677873  
C309     C      0.612300000000     0.664530000000     0.392130000000     0.0313786  
C310     C      0.671610000000     0.615930000000     0.397120000000     0.0172922  
C311     C      0.589180000000     0.639700000000     0.424380000000     0.0290833  
C312     C      0.649200000000     0.591340000000     0.430320000000     0.0681628  
C313     C      0.671060000000     0.891770000000     0.175440000000     0.031181   
C314     C      0.617160000000     0.837080000000     0.177160000000     0.0168112  
C315     C      0.646060000000     0.915060000000     0.143690000000     0.0306113  
C316     C      0.591750000000     0.860130000000     0.145160000000     0.0685566  
C317     C      0.860190000000     0.597720000000     0.138440000000     0.0314121  
C318     C      0.926290000000     0.629430000000     0.163790000000     0.0170176  
C319     C      0.837130000000     0.621530000000     0.171540000000     0.0316249  
C320     C      0.903720000000     0.651370000000     0.198830000000     0.0716502  
C321     C      0.875030000000     0.926530000000     0.414070000000     0.0306095  
C322     C      0.932180000000     0.875260000000     0.413380000000     0.0167604  
C323     C      0.852630000000     0.902310000000     0.380860000000     0.0290025  
C324     C      0.909940000000     0.850640000000     0.380040000000     0.0690289  
C325     C      0.898880000000     0.664360000000     0.390940000000     0.0316847  
C326     C      0.835790000000     0.621950000000     0.404080000000     0.0172896  
C327     C      0.921640000000     0.640110000000     0.423730000000     0.0297805  
C328     C      0.857930000000     0.598140000000     0.437870000000     0.0696339  
C329     C      0.591680000000     0.872180000000     0.424810000000     0.0311098  
C330     C      0.648060000000     0.923940000000     0.431070000000     0.016993   
C331     C      0.616650000000     0.848820000000     0.393040000000     0.0304396  
C332     C      0.673450000000     0.900820000000     0.399010000000     0.0687088  
C333     C      0.859330000000     0.912330000000     0.135630000000     0.0314891  
C334     C      0.910800000000     0.856010000000     0.127200000000     0.0169143  
C335     C      0.836210000000     0.887330000000     0.167580000000     0.0300809  
C336     C      0.887890000000     0.830620000000     0.159250000000     0.0671078  
C337     C      0.922480000000     0.923150000000     0.588560000000     0.400096   
C338     C      0.583470000000     0.589490000000     0.595450000000     0.399352   
C339     C      0.582630000000     0.925190000000     0.597860000000     0.403182   
C340     C      0.927180000000     0.580630000000     0.600270000000     0.397543   
C341     C      0.926180000000     0.582560000000     0.977640000000     0.400776   
C342     C      0.583290000000     0.931970000000     0.976260000000     0.392437   
C343     C      0.934640000000     0.934040000000     0.966790000000     0.391726   
C344     C      0.582910000000     0.580310000000     0.976250000000     0.394569   
C345     C      0.829350000000     0.825970000000     0.716470000000     0.396327   
C346     C      0.680290000000     0.684320000000     0.723350000000     0.391215   
C347     C      0.834410000000     0.675080000000     0.730240000000     0.397328   
C348     C      0.680160000000     0.830860000000     0.725140000000     0.394413   
C349     C      0.680820000000     0.837570000000     0.848540000000     0.401021   
C350     C      0.833560000000     0.678560000000     0.848600000000     0.400858   
C351     C      0.842260000000     0.837990000000     0.837130000000     0.401175   
C352     C      0.676780000000     0.677220000000     0.847360000000     0.397144   
C353     C      0.671630000000     0.623580000000     0.673230000000     0.0302184  
C354     C      0.618340000000     0.678810000000     0.673440000000     0.0166412  
C355     C      0.646900000000     0.600180000000     0.641260000000     0.0299876  
C356     C      0.593320000000     0.655760000000     0.640930000000     0.0678117  
C357     C      0.612300000000     0.664530000000     0.892130000000     0.0313971  
C358     C      0.671610000000     0.615930000000     0.897120000000     0.017314   
C359     C      0.589180000000     0.639700000000     0.924380000000     0.0291109  
C360     C      0.649200000000     0.591340000000     0.930330000000     0.0681859  
C361     C      0.671060000000     0.891770000000     0.675440000000     0.0311982  
C362     C      0.617160000000     0.837080000000     0.677160000000     0.0168261  
C363     C      0.646060000000     0.915060000000     0.643690000000     0.0306334  
C364     C      0.591750000000     0.860130000000     0.645170000000     0.0685501  
C365     C      0.860190000000     0.597720000000     0.638440000000     0.0314291  
C366     C      0.926290000000     0.629430000000     0.663790000000     0.017035   
C367     C      0.837130000000     0.621530000000     0.671540000000     0.0316463  
C368     C      0.903720000000     0.651370000000     0.698830000000     0.071655   
C369     C      0.875030000000     0.926530000000     0.914070000000     0.0306311  
C370     C      0.932180000000     0.875260000000     0.913380000000     0.016782   
C371     C      0.852630000000     0.902310000000     0.880860000000     0.0290136  
C372     C      0.909940000000     0.850640000000     0.880040000000     0.0690466  
C373     C      0.898880000000     0.664360000000     0.890940000000     0.0317041  
C374     C      0.835790000000     0.621950000000     0.904080000000     0.017315   
C375     C      0.921640000000     0.640110000000     0.923730000000     0.0298048  
C376     C      0.857930000000     0.598140000000     0.937870000000     0.0696253  
C377     C      0.591680000000     0.872180000000     0.924810000000     0.031136   
C378     C      0.648060000000     0.923940000000     0.931070000000     0.0170136  
C379     C      0.616650000000     0.848820000000     0.893040000000     0.0304598  
C380     C      0.673450000000     0.900820000000     0.899010000000     0.0687295  
C381     C      0.859330000000     0.912330000000     0.635620000000     0.0315399  
C382     C      0.910800000000     0.856010000000     0.627200000000     0.0169496  
C383     C      0.836210000000     0.887330000000     0.667580000000     0.0300967  
C384     C      0.887890000000     0.830620000000     0.659240000000     0.0670978  
Co1      Co     0.439720000000     0.005260000000     0.037490000000     0.840401   
Co2      Co     0.070290000000     0.506320000000     0.542220000000     0.834907   
Co3      Co     0.505370000000     0.442110000000     0.036980000000     0.844438   
Co4      Co     0.504850000000     0.069670000000     0.538150000000     0.83896    
Co5      Co     0.257960000000     0.320630000000     0.286980000000     0.843699   
Co6      Co     0.255630000000     0.192740000000     0.288180000000     0.838961   
Co7      Co     0.321950000000     0.255150000000     0.287310000000     0.839628   
Co8      Co     0.191590000000     0.257180000000     0.291060000000     0.838008   
Co9      Co     0.439720000000     0.005260000000     0.537490000000     0.841039   
Co10     Co     0.070290000000     0.506320000000     0.042220000000     0.834325   
Co11     Co     0.505370000000     0.442110000000     0.536990000000     0.845081   
Co12     Co     0.504850000000     0.069670000000     0.038150000000     0.838308   
Co13     Co     0.257960000000     0.320630000000     0.786980000000     0.843702   
Co14     Co     0.255630000000     0.192740000000     0.788180000000     0.838923   
Co15     Co     0.321950000000     0.255150000000     0.787310000000     0.83959    
Co16     Co     0.191590000000     0.257180000000     0.791060000000     0.838013   
Co17     Co     0.439720000000     0.505260000000     0.037490000000     0.840558   
Co18     Co     0.070290000000     0.006320000000     0.542220000000     0.834753   
Co19     Co     0.505370000000     0.942110000000     0.036980000000     0.844547   
Co20     Co     0.504850000000     0.569670000000     0.538150000000     0.838946   
Co21     Co     0.257960000000     0.820640000000     0.286980000000     0.843808   
Co22     Co     0.255630000000     0.692740000000     0.288180000000     0.838947   
Co23     Co     0.321950000000     0.755150000000     0.287310000000     0.839635   
Co24     Co     0.191590000000     0.757180000000     0.291060000000     0.838033   
Co25     Co     0.439720000000     0.505260000000     0.537490000000     0.841195   
Co26     Co     0.070290000000     0.006320000000     0.042220000000     0.834171   
Co27     Co     0.505370000000     0.942110000000     0.536990000000     0.845191   
Co28     Co     0.504850000000     0.569670000000     0.038150000000     0.838293   
Co29     Co     0.257960000000     0.820640000000     0.786980000000     0.843811   
Co30     Co     0.255630000000     0.692740000000     0.788180000000     0.838908   
Co31     Co     0.321950000000     0.755150000000     0.787310000000     0.839598   
Co32     Co     0.191590000000     0.757180000000     0.791060000000     0.838039   
Co33     Co     0.939730000000     0.005260000000     0.037490000000     0.840403   
Co34     Co     0.570290000000     0.506320000000     0.542220000000     0.834938   
Co35     Co     0.005370000000     0.442110000000     0.036980000000     0.844252   
Co36     Co     0.004850000000     0.069670000000     0.538150000000     0.838801   
Co37     Co     0.757960000000     0.320630000000     0.286980000000     0.843675   
Co38     Co     0.755630000000     0.192740000000     0.288180000000     0.838983   
Co39     Co     0.821950000000     0.255150000000     0.287310000000     0.839627   
Co40     Co     0.691590000000     0.257180000000     0.291060000000     0.838008   
Co41     Co     0.939730000000     0.005260000000     0.537490000000     0.84104    
Co42     Co     0.570290000000     0.506320000000     0.042220000000     0.834356   
Co43     Co     0.005370000000     0.442110000000     0.536990000000     0.844896   
Co44     Co     0.004850000000     0.069670000000     0.038150000000     0.838149   
Co45     Co     0.757960000000     0.320630000000     0.786980000000     0.843678   
Co46     Co     0.755630000000     0.192740000000     0.788180000000     0.838945   
Co47     Co     0.821950000000     0.255150000000     0.787310000000     0.83959    
Co48     Co     0.691590000000     0.257180000000     0.791060000000     0.838013   
Co49     Co     0.939730000000     0.505260000000     0.037490000000     0.840559   
Co50     Co     0.570290000000     0.006320000000     0.542220000000     0.834785   
Co51     Co     0.005370000000     0.942110000000     0.036980000000     0.844362   
Co52     Co     0.004850000000     0.569670000000     0.538150000000     0.838787   
Co53     Co     0.757960000000     0.820640000000     0.286980000000     0.843784   
Co54     Co     0.755630000000     0.692740000000     0.288180000000     0.838969   
Co55     Co     0.821950000000     0.755150000000     0.287310000000     0.839635   
Co56     Co     0.691590000000     0.757180000000     0.291060000000     0.838034   
Co57     Co     0.939730000000     0.505260000000     0.537490000000     0.841197   
Co58     Co     0.570290000000     0.006320000000     0.042220000000     0.834202   
Co59     Co     0.005370000000     0.942110000000     0.536990000000     0.845005   
Co60     Co     0.004850000000     0.569670000000     0.038150000000     0.838135   
Co61     Co     0.757960000000     0.820640000000     0.786980000000     0.843787   
Co62     Co     0.755630000000     0.692740000000     0.788180000000     0.83893    
Co63     Co     0.821950000000     0.755150000000     0.787310000000     0.839597   
Co64     Co     0.691590000000     0.757180000000     0.791060000000     0.838039   
H1       H      0.160230000000     0.069260000000     0.130010000000     0.0444824  
H2       H      0.202310000000     0.109450000000     0.184800000000     0.0451365  
H3       H      0.106140000000     0.210010000000     0.185360000000     0.04841    
H4       H      0.053050000000     0.206940000000     0.084890000000     0.0446497  
H5       H      0.056520000000     0.150800000000     0.433390000000     0.0444677  
H6       H      0.096450000000     0.193240000000     0.378210000000     0.0432846  
H7       H      0.204460000000     0.105750000000     0.387490000000     0.0493611  
H8       H      0.202330000000     0.061160000000     0.491440000000     0.0432824  
H9       H      0.159540000000     0.445690000000     0.131800000000     0.0452365  
H10      H      0.202100000000     0.405630000000     0.186310000000     0.0453363  
H11      H      0.104730000000     0.306200000000     0.189720000000     0.0488227  
H12      H      0.009560000000     0.348180000000     0.159650000000     0.0420931  
H13      H      0.301730000000     0.118010000000     0.172340000000     0.0433459  
H14      H      0.341720000000     0.076570000000     0.115650000000     0.0436319  
H15      H      0.461810000000     0.131710000000     0.162980000000     0.049561   
H16      H      0.448560000000     0.214680000000     0.235390000000     0.0452116  
H17      H      0.321610000000     0.415190000000     0.368910000000     0.0437126  
H18      H      0.360030000000     0.456300000000     0.426200000000     0.0408443  
H19      H      0.464050000000     0.363880000000     0.424930000000     0.0500514  
H20      H      0.429120000000     0.269560000000     0.385650000000     0.0457294  
H21      H      0.455800000000     0.148370000000     0.429450000000     0.0435055  
H22      H      0.416360000000     0.190110000000     0.373220000000     0.0407422  
H23      H      0.301460000000     0.114570000000     0.397920000000     0.0487102  
H24      H      0.324300000000     0.021970000000     0.448620000000     0.0444763  
H25      H      0.102070000000     0.319400000000     0.379250000000     0.0453245  
H26      H      0.059590000000     0.359500000000     0.433760000000     0.0448199  
H27      H      0.161760000000     0.453240000000     0.445970000000     0.0505525  
H28      H      0.255080000000     0.406710000000     0.418800000000     0.0409274  
H29      H      0.306930000000     0.401770000000     0.182310000000     0.0466922  
H30      H      0.346810000000     0.444430000000     0.127540000000     0.0449433  
H31      H      0.439790000000     0.342250000000     0.111130000000     0.0477588  
H32      H      0.441340000000     0.281820000000     0.201430000000     0.0410966  
H33      H      0.160230000000     0.069260000000     0.630010000000     0.0445226  
H34      H      0.202310000000     0.109450000000     0.684800000000     0.0451524  
H35      H      0.106140000000     0.210010000000     0.685370000000     0.0484192  
H36      H      0.053050000000     0.206940000000     0.584890000000     0.0447522  
H37      H      0.056520000000     0.150800000000     0.933390000000     0.0445047  
H38      H      0.096450000000     0.193240000000     0.878210000000     0.0432981  
H39      H      0.204460000000     0.105750000000     0.887490000000     0.0493622  
H40      H      0.202330000000     0.061160000000     0.991440000000     0.043398   
H41      H      0.159540000000     0.445690000000     0.631810000000     0.0452712  
H42      H      0.202100000000     0.405630000000     0.686310000000     0.0453477  
H43      H      0.104730000000     0.306200000000     0.689720000000     0.0488254  
H44      H      0.009560000000     0.348180000000     0.659650000000     0.0420662  
H45      H      0.301730000000     0.118010000000     0.672340000000     0.0433722  
H46      H      0.341720000000     0.076570000000     0.615660000000     0.0437023  
H47      H      0.461810000000     0.131710000000     0.662980000000     0.0495558  
H48      H      0.448560000000     0.214680000000     0.735390000000     0.0452135  
H49      H      0.321610000000     0.415190000000     0.868910000000     0.0437152  
H50      H      0.360030000000     0.456300000000     0.926200000000     0.0408647  
H51      H      0.464050000000     0.363880000000     0.924930000000     0.0500831  
H52      H      0.429120000000     0.269560000000     0.885650000000     0.0457628  
H53      H      0.455800000000     0.148370000000     0.929450000000     0.0435348  
H54      H      0.416360000000     0.190110000000     0.873220000000     0.0407489  
H55      H      0.301460000000     0.114570000000     0.897910000000     0.0487208  
H56      H      0.324300000000     0.021970000000     0.948620000000     0.0444754  
H57      H      0.102070000000     0.319400000000     0.879250000000     0.0453381  
H58      H      0.059590000000     0.359500000000     0.933760000000     0.0448592  
H59      H      0.161760000000     0.453240000000     0.945970000000     0.0505846  
H60      H      0.255080000000     0.406710000000     0.918800000000     0.0409792  
H61      H      0.306930000000     0.401770000000     0.682310000000     0.0467047  
H62      H      0.346810000000     0.444430000000     0.627550000000     0.0449671  
H63      H      0.439790000000     0.342250000000     0.611130000000     0.0478012  
H64      H      0.441340000000     0.281820000000     0.701430000000     0.0410821  
H65      H      0.160230000000     0.569260000000     0.130010000000     0.0444985  
H66      H      0.202310000000     0.609450000000     0.184800000000     0.0451451  
H67      H      0.106140000000     0.710010000000     0.185360000000     0.0484102  
H68      H      0.053050000000     0.706940000000     0.084890000000     0.044648   
H69      H      0.056520000000     0.650800000000     0.433390000000     0.0444663  
H70      H      0.096450000000     0.693240000000     0.378210000000     0.0432897  
H71      H      0.204460000000     0.605750000000     0.387490000000     0.0493893  
H72      H      0.202330000000     0.561160000000     0.491440000000     0.0432853  
H73      H      0.159540000000     0.945700000000     0.131800000000     0.0452534  
H74      H      0.202100000000     0.905630000000     0.186310000000     0.0453457  
H75      H      0.104730000000     0.806200000000     0.189720000000     0.0488227  
H76      H      0.009560000000     0.848180000000     0.159650000000     0.0420968  
H77      H      0.301730000000     0.618010000000     0.172340000000     0.0433532  
H78      H      0.341720000000     0.576570000000     0.115650000000     0.0436396  
H79      H      0.461810000000     0.631710000000     0.162980000000     0.0495854  
H80      H      0.448560000000     0.714680000000     0.235390000000     0.0452106  
H81      H      0.321610000000     0.915190000000     0.368910000000     0.0437198  
H82      H      0.360030000000     0.956300000000     0.426200000000     0.0408703  
H83      H      0.464050000000     0.863880000000     0.424930000000     0.0500522  
H84      H      0.429120000000     0.769560000000     0.385650000000     0.0457281  
H85      H      0.455800000000     0.648370000000     0.429450000000     0.0435121  
H86      H      0.416360000000     0.690110000000     0.373220000000     0.040736   
H87      H      0.301460000000     0.614570000000     0.397920000000     0.0487131  
H88      H      0.324300000000     0.521960000000     0.448620000000     0.0445008  
H89      H      0.102070000000     0.819400000000     0.379250000000     0.0453246  
H90      H      0.059590000000     0.859500000000     0.433760000000     0.0448203  
H91      H      0.161760000000     0.953240000000     0.445970000000     0.050575   
H92      H      0.255080000000     0.906710000000     0.418800000000     0.0409292  
H93      H      0.306930000000     0.901770000000     0.182310000000     0.0466976  
H94      H      0.346810000000     0.944430000000     0.127540000000     0.0449618  
H95      H      0.439790000000     0.842250000000     0.111130000000     0.0477591  
H96      H      0.441340000000     0.781820000000     0.201430000000     0.0410967  
H97      H      0.160230000000     0.569260000000     0.630010000000     0.0445387  
H98      H      0.202310000000     0.609450000000     0.684800000000     0.0451611  
H99      H      0.106140000000     0.710010000000     0.685370000000     0.0484194  
H100     H      0.053050000000     0.706940000000     0.584890000000     0.0447505  
H101     H      0.056520000000     0.650800000000     0.933390000000     0.0445032  
H102     H      0.096450000000     0.693240000000     0.878210000000     0.0433032  
H103     H      0.204460000000     0.605750000000     0.887490000000     0.0493904  
H104     H      0.202330000000     0.561160000000     0.991440000000     0.0434008  
H105     H      0.159540000000     0.945700000000     0.631810000000     0.045288   
H106     H      0.202100000000     0.905630000000     0.686310000000     0.0453572  
H107     H      0.104730000000     0.806200000000     0.689720000000     0.0488254  
H108     H      0.009560000000     0.848180000000     0.659650000000     0.04207    
H109     H      0.301730000000     0.618010000000     0.672340000000     0.0433794  
H110     H      0.341720000000     0.576570000000     0.615660000000     0.04371    
H111     H      0.461810000000     0.631710000000     0.662980000000     0.0495802  
H112     H      0.448560000000     0.714680000000     0.735390000000     0.0452125  
H113     H      0.321610000000     0.915190000000     0.868910000000     0.0437225  
H114     H      0.360030000000     0.956300000000     0.926200000000     0.0408907  
H115     H      0.464050000000     0.863880000000     0.924930000000     0.0500839  
H116     H      0.429120000000     0.769560000000     0.885650000000     0.0457615  
H117     H      0.455800000000     0.648370000000     0.929450000000     0.0435414  
H118     H      0.416360000000     0.690110000000     0.873220000000     0.0407426  
H119     H      0.301460000000     0.614570000000     0.897910000000     0.0487238  
H120     H      0.324300000000     0.521960000000     0.948620000000     0.0445     
H121     H      0.102070000000     0.819400000000     0.879250000000     0.0453383  
H122     H      0.059590000000     0.859500000000     0.933760000000     0.0448596  
H123     H      0.161760000000     0.953240000000     0.945970000000     0.0506071  
H124     H      0.255080000000     0.906710000000     0.918800000000     0.040981   
H125     H      0.306930000000     0.901770000000     0.682310000000     0.0467101  
H126     H      0.346810000000     0.944430000000     0.627550000000     0.0449856  
H127     H      0.439790000000     0.842250000000     0.611130000000     0.0478015  
H128     H      0.441340000000     0.781820000000     0.701430000000     0.0410822  
H129     H      0.660230000000     0.069260000000     0.130010000000     0.044479   
H130     H      0.702310000000     0.109450000000     0.184800000000     0.0451409  
H131     H      0.606140000000     0.210010000000     0.185360000000     0.0484185  
H132     H      0.553050000000     0.206940000000     0.084890000000     0.0446555  
H133     H      0.556520000000     0.150800000000     0.433390000000     0.0444873  
H134     H      0.596450000000     0.193240000000     0.378210000000     0.0432978  
H135     H      0.704460000000     0.105750000000     0.387490000000     0.049363   
H136     H      0.702320000000     0.061160000000     0.491440000000     0.0432865  
H137     H      0.659540000000     0.445690000000     0.131800000000     0.0452568  
H138     H      0.702090000000     0.405630000000     0.186310000000     0.0453309  
H139     H      0.604720000000     0.306200000000     0.189720000000     0.0488169  
H140     H      0.509560000000     0.348180000000     0.159650000000     0.0421251  
H141     H      0.801730000000     0.118010000000     0.172340000000     0.0433445  
H142     H      0.841720000000     0.076570000000     0.115650000000     0.0436341  
H143     H      0.961810000000     0.131710000000     0.162980000000     0.0495956  
H144     H      0.948560000000     0.214680000000     0.235390000000     0.0452259  
H145     H      0.821610000000     0.415190000000     0.368910000000     0.0436949  
H146     H      0.860030000000     0.456300000000     0.426200000000     0.0408744  
H147     H      0.964050000000     0.363880000000     0.424930000000     0.0500822  
H148     H      0.929120000000     0.269560000000     0.385650000000     0.0457348  
H149     H      0.955800000000     0.148370000000     0.429450000000     0.0435294  
H150     H      0.916360000000     0.190110000000     0.373220000000     0.0407571  
H151     H      0.801460000000     0.114570000000     0.397920000000     0.0486994  
H152     H      0.824310000000     0.021970000000     0.448620000000     0.0444806  
H153     H      0.602070000000     0.319400000000     0.379250000000     0.0453341  
H154     H      0.559590000000     0.359500000000     0.433760000000     0.0448426  
H155     H      0.661760000000     0.453240000000     0.445970000000     0.0505538  
H156     H      0.755080000000     0.406710000000     0.418800000000     0.0409276  
H157     H      0.806930000000     0.401770000000     0.182310000000     0.0466935  
H158     H      0.846810000000     0.444430000000     0.127540000000     0.0449455  
H159     H      0.939790000000     0.342250000000     0.111130000000     0.0477832  
H160     H      0.941340000000     0.281820000000     0.201430000000     0.0411165  
H161     H      0.660230000000     0.069260000000     0.630010000000     0.0445192  
H162     H      0.702310000000     0.109450000000     0.684800000000     0.0451568  
H163     H      0.606140000000     0.210010000000     0.685370000000     0.0484276  
H164     H      0.553050000000     0.206940000000     0.584890000000     0.044758   
H165     H      0.556520000000     0.150800000000     0.933390000000     0.0445243  
H166     H      0.596450000000     0.193240000000     0.878210000000     0.0433113  
H167     H      0.704460000000     0.105750000000     0.887490000000     0.049364   
H168     H      0.702320000000     0.061160000000     0.991440000000     0.043402   
H169     H      0.659540000000     0.445690000000     0.631810000000     0.0452914  
H170     H      0.702090000000     0.405630000000     0.686310000000     0.0453424  
H171     H      0.604720000000     0.306200000000     0.689720000000     0.0488196  
H172     H      0.509560000000     0.348180000000     0.659650000000     0.0420983  
H173     H      0.801730000000     0.118010000000     0.672340000000     0.0433707  
H174     H      0.841720000000     0.076570000000     0.615660000000     0.0437045  
H175     H      0.961810000000     0.131710000000     0.662980000000     0.0495904  
H176     H      0.948560000000     0.214680000000     0.735390000000     0.0452278  
H177     H      0.821610000000     0.415190000000     0.868910000000     0.0436976  
H178     H      0.860030000000     0.456300000000     0.926200000000     0.0408947  
H179     H      0.964050000000     0.363880000000     0.924930000000     0.0501139  
H180     H      0.929120000000     0.269560000000     0.885650000000     0.0457682  
H181     H      0.955800000000     0.148370000000     0.929450000000     0.0435587  
H182     H      0.916360000000     0.190110000000     0.873220000000     0.0407637  
H183     H      0.801460000000     0.114570000000     0.897910000000     0.04871    
H184     H      0.824310000000     0.021970000000     0.948620000000     0.0444798  
H185     H      0.602070000000     0.319400000000     0.879250000000     0.0453477  
H186     H      0.559590000000     0.359500000000     0.933760000000     0.0448819  
H187     H      0.661760000000     0.453240000000     0.945970000000     0.0505859  
H188     H      0.755080000000     0.406710000000     0.918800000000     0.0409794  
H189     H      0.806930000000     0.401770000000     0.682310000000     0.046706   
H190     H      0.846810000000     0.444430000000     0.627550000000     0.0449693  
H191     H      0.939790000000     0.342250000000     0.611130000000     0.0478256  
H192     H      0.941340000000     0.281820000000     0.701430000000     0.041102   
H193     H      0.660230000000     0.569260000000     0.130010000000     0.0444951  
H194     H      0.702310000000     0.609450000000     0.184800000000     0.0451495  
H195     H      0.606140000000     0.710010000000     0.185360000000     0.0484187  
H196     H      0.553050000000     0.706940000000     0.084890000000     0.0446538  
H197     H      0.556520000000     0.650800000000     0.433390000000     0.0444858  
H198     H      0.596450000000     0.693240000000     0.378210000000     0.0433029  
H199     H      0.704460000000     0.605750000000     0.387490000000     0.0493911  
H200     H      0.702320000000     0.561160000000     0.491440000000     0.0432893  
H201     H      0.659540000000     0.945700000000     0.131800000000     0.0452736  
H202     H      0.702090000000     0.905630000000     0.186310000000     0.0453403  
H203     H      0.604720000000     0.806200000000     0.189720000000     0.0488169  
H204     H      0.509560000000     0.848180000000     0.159650000000     0.0421289  
H205     H      0.801730000000     0.618010000000     0.172340000000     0.0433517  
H206     H      0.841720000000     0.576570000000     0.115650000000     0.0436418  
H207     H      0.961810000000     0.631710000000     0.162980000000     0.04962    
H208     H      0.948560000000     0.714680000000     0.235390000000     0.0452249  
H209     H      0.821610000000     0.915190000000     0.368910000000     0.0437022  
H210     H      0.860030000000     0.956300000000     0.426200000000     0.0409004  
H211     H      0.964050000000     0.863880000000     0.424930000000     0.050083   
H212     H      0.929120000000     0.769560000000     0.385650000000     0.0457335  
H213     H      0.955800000000     0.648370000000     0.429450000000     0.0435359  
H214     H      0.916360000000     0.690110000000     0.373220000000     0.0407508  
H215     H      0.801460000000     0.614570000000     0.397920000000     0.0487023  
H216     H      0.824310000000     0.521960000000     0.448620000000     0.0445051  
H217     H      0.602070000000     0.819400000000     0.379250000000     0.0453342  
H218     H      0.559590000000     0.859500000000     0.433760000000     0.044843   
H219     H      0.661760000000     0.953240000000     0.445970000000     0.0505762  
H220     H      0.755080000000     0.906710000000     0.418800000000     0.0409295  
H221     H      0.806930000000     0.901770000000     0.182310000000     0.0466989  
H222     H      0.846810000000     0.944430000000     0.127540000000     0.044964   
H223     H      0.939790000000     0.842250000000     0.111130000000     0.0477835  
H224     H      0.941340000000     0.781820000000     0.201430000000     0.0411166  
H225     H      0.660230000000     0.569260000000     0.630010000000     0.0445353  
H226     H      0.702310000000     0.609450000000     0.684800000000     0.0451655  
H227     H      0.606140000000     0.710010000000     0.685370000000     0.0484278  
H228     H      0.553050000000     0.706940000000     0.584890000000     0.0447563  
H229     H      0.556520000000     0.650800000000     0.933390000000     0.0445228  
H230     H      0.596450000000     0.693240000000     0.878210000000     0.0433164  
H231     H      0.704460000000     0.605750000000     0.887490000000     0.0493922  
H232     H      0.702320000000     0.561160000000     0.991440000000     0.0434048  
H233     H      0.659540000000     0.945700000000     0.631810000000     0.0453083  
H234     H      0.702090000000     0.905630000000     0.686310000000     0.0453518  
H235     H      0.604720000000     0.806200000000     0.689720000000     0.0488196  
H236     H      0.509560000000     0.848180000000     0.659650000000     0.042102   
H237     H      0.801730000000     0.618010000000     0.672340000000     0.043378   
H238     H      0.841720000000     0.576570000000     0.615660000000     0.0437122  
H239     H      0.961810000000     0.631710000000     0.662980000000     0.0496148  
H240     H      0.948560000000     0.714680000000     0.735390000000     0.0452268  
H241     H      0.821610000000     0.915190000000     0.868910000000     0.0437049  
H242     H      0.860030000000     0.956300000000     0.926200000000     0.0409207  
H243     H      0.964050000000     0.863880000000     0.924930000000     0.0501147  
H244     H      0.929120000000     0.769560000000     0.885650000000     0.0457669  
H245     H      0.955800000000     0.648370000000     0.929450000000     0.0435652  
H246     H      0.916360000000     0.690110000000     0.873220000000     0.0407575  
H247     H      0.801460000000     0.614570000000     0.897910000000     0.048713   
H248     H      0.824310000000     0.521960000000     0.948620000000     0.0445043  
H249     H      0.602070000000     0.819400000000     0.879250000000     0.0453478  
H250     H      0.559590000000     0.859500000000     0.933760000000     0.0448823  
H251     H      0.661760000000     0.953240000000     0.945970000000     0.0506083  
H252     H      0.755080000000     0.906710000000     0.918800000000     0.0409813  
H253     H      0.806930000000     0.901770000000     0.682310000000     0.0467114  
H254     H      0.846810000000     0.944430000000     0.627550000000     0.0449878  
H255     H      0.939790000000     0.842250000000     0.611130000000     0.0478259  
H256     H      0.941340000000     0.781820000000     0.701430000000     0.0411021  
N1       N      0.156990000000     0.162490000000     0.190000000000    -0.169203   
N2       N      0.107320000000     0.115420000000     0.125320000000    -0.176087   
N3       N      0.153480000000     0.152610000000     0.378460000000    -0.170024   
N4       N      0.107190000000     0.103060000000     0.443910000000    -0.175439   
N5       N      0.156370000000     0.353060000000     0.192580000000    -0.1698     
N6       N      0.106150000000     0.399910000000     0.128510000000    -0.177151   
N7       N      0.404520000000     0.102820000000     0.133670000000    -0.170011   
N8       N      0.358520000000     0.149600000000     0.200650000000    -0.17717    
N9       N      0.414120000000     0.412270000000     0.431430000000    -0.169364   
N10      N      0.368630000000     0.363240000000     0.365220000000    -0.176685   
N11      N      0.356150000000     0.154950000000     0.380850000000    -0.171403   
N12      N      0.401760000000     0.106470000000     0.446810000000    -0.177475   
N13      N      0.107460000000     0.409610000000     0.444050000000    -0.169142   
N14      N      0.157670000000     0.362600000000     0.379830000000    -0.176466   
N15      N      0.397450000000     0.397230000000     0.116690000000    -0.171115   
N16      N      0.351040000000     0.347090000000     0.181100000000    -0.175909   
N17      N      0.156990000000     0.162490000000     0.690000000000    -0.169204   
N18      N      0.107320000000     0.115420000000     0.625320000000    -0.176106   
N19      N      0.153480000000     0.152610000000     0.878460000000    -0.170023   
N20      N      0.107190000000     0.103060000000     0.943910000000    -0.175413   
N21      N      0.156370000000     0.353060000000     0.692580000000    -0.169797   
N22      N      0.106150000000     0.399910000000     0.628510000000    -0.177139   
N23      N      0.404520000000     0.102820000000     0.633670000000    -0.170006   
N24      N      0.358520000000     0.149600000000     0.700650000000    -0.177168   
N25      N      0.414120000000     0.412270000000     0.931430000000    -0.169338   
N26      N      0.368630000000     0.363240000000     0.865210000000    -0.176731   
N27      N      0.356150000000     0.154950000000     0.880850000000    -0.171402   
N28      N      0.401760000000     0.106470000000     0.946810000000    -0.177438   
N29      N      0.107460000000     0.409610000000     0.944050000000    -0.169106   
N30      N      0.157670000000     0.362600000000     0.879830000000    -0.176463   
N31      N      0.397450000000     0.397230000000     0.616690000000    -0.171118   
N32      N      0.351040000000     0.347090000000     0.681110000000    -0.175957   
N33      N      0.156990000000     0.662490000000     0.190000000000    -0.169203   
N34      N      0.107320000000     0.615420000000     0.125320000000    -0.176086   
N35      N      0.153480000000     0.652610000000     0.378460000000    -0.16998    
N36      N      0.107190000000     0.603060000000     0.443910000000    -0.175441   
N37      N      0.156370000000     0.853060000000     0.192580000000    -0.169802   
N38      N      0.106150000000     0.899910000000     0.128510000000    -0.177151   
N39      N      0.404520000000     0.602810000000     0.133670000000    -0.170023   
N40      N      0.358520000000     0.649600000000     0.200650000000    -0.177172   
N41      N      0.414120000000     0.912270000000     0.431430000000    -0.169359   
N42      N      0.368630000000     0.863240000000     0.365220000000    -0.176688   
N43      N      0.356150000000     0.654950000000     0.380850000000    -0.171412   
N44      N      0.401760000000     0.606470000000     0.446810000000    -0.177469   
N45      N      0.107460000000     0.909610000000     0.444050000000    -0.169137   
N46      N      0.157670000000     0.862600000000     0.379830000000    -0.176469   
N47      N      0.397450000000     0.897230000000     0.116690000000    -0.17111    
N48      N      0.351040000000     0.847090000000     0.181100000000    -0.175933   
N49      N      0.156990000000     0.662490000000     0.690000000000    -0.169203   
N50      N      0.107320000000     0.615420000000     0.625320000000    -0.176104   
N51      N      0.153480000000     0.652610000000     0.878460000000    -0.169979   
N52      N      0.107190000000     0.603060000000     0.943910000000    -0.175415   
N53      N      0.156370000000     0.853060000000     0.692580000000    -0.169799   
N54      N      0.106150000000     0.899910000000     0.628510000000    -0.177139   
N55      N      0.404520000000     0.602810000000     0.633670000000    -0.170018   
N56      N      0.358520000000     0.649600000000     0.700650000000    -0.17717    
N57      N      0.414120000000     0.912270000000     0.931430000000    -0.169333   
N58      N      0.368630000000     0.863240000000     0.865210000000    -0.176734   
N59      N      0.356150000000     0.654950000000     0.880850000000    -0.171411   
N60      N      0.401760000000     0.606470000000     0.946810000000    -0.177432   
N61      N      0.107460000000     0.909610000000     0.944050000000    -0.169102   
N62      N      0.157670000000     0.862600000000     0.879830000000    -0.176466   
N63      N      0.397450000000     0.897230000000     0.616690000000    -0.171113   
N64      N      0.351040000000     0.847090000000     0.681110000000    -0.175981   
N65      N      0.656990000000     0.162490000000     0.190000000000    -0.169178   
N66      N      0.607320000000     0.115420000000     0.125320000000    -0.17611    
N67      N      0.653480000000     0.152610000000     0.378460000000    -0.170023   
N68      N      0.607190000000     0.103060000000     0.443910000000    -0.175457   
N69      N      0.656370000000     0.353060000000     0.192580000000    -0.169803   
N70      N      0.606150000000     0.399910000000     0.128510000000    -0.177129   
N71      N      0.904520000000     0.102820000000     0.133670000000    -0.169998   
N72      N      0.858520000000     0.149600000000     0.200650000000    -0.177194   
N73      N      0.914120000000     0.412270000000     0.431430000000    -0.169328   
N74      N      0.868630000000     0.363240000000     0.365220000000    -0.176705   
N75      N      0.856140000000     0.154950000000     0.380850000000    -0.17145    
N76      N      0.901760000000     0.106470000000     0.446810000000    -0.177441   
N77      N      0.607460000000     0.409610000000     0.444050000000    -0.169139   
N78      N      0.657670000000     0.362600000000     0.379830000000    -0.176487   
N79      N      0.897450000000     0.397230000000     0.116690000000    -0.171106   
N80      N      0.851040000000     0.347090000000     0.181100000000    -0.175908   
N81      N      0.656990000000     0.162490000000     0.690000000000    -0.169178   
N82      N      0.607320000000     0.115420000000     0.625320000000    -0.176129   
N83      N      0.653480000000     0.152610000000     0.878460000000    -0.170021   
N84      N      0.607190000000     0.103060000000     0.943910000000    -0.175431   
N85      N      0.656370000000     0.353060000000     0.692580000000    -0.169801   
N86      N      0.606150000000     0.399910000000     0.628510000000    -0.177117   
N87      N      0.904520000000     0.102820000000     0.633670000000    -0.169993   
N88      N      0.858520000000     0.149600000000     0.700650000000    -0.177192   
N89      N      0.914120000000     0.412270000000     0.931430000000    -0.169302   
N90      N      0.868630000000     0.363240000000     0.865210000000    -0.176751   
N91      N      0.856140000000     0.154950000000     0.880850000000    -0.171449   
N92      N      0.901760000000     0.106470000000     0.946810000000    -0.177404   
N93      N      0.607460000000     0.409610000000     0.944050000000    -0.169104   
N94      N      0.657670000000     0.362600000000     0.879830000000    -0.176484   
N95      N      0.897450000000     0.397230000000     0.616690000000    -0.171109   
N96      N      0.851040000000     0.347090000000     0.681110000000    -0.175956   
N97      N      0.656990000000     0.662490000000     0.190000000000    -0.169177   
N98      N      0.607320000000     0.615420000000     0.125320000000    -0.176109   
N99      N      0.653480000000     0.652610000000     0.378460000000    -0.169979   
N100     N      0.607190000000     0.603060000000     0.443910000000    -0.17546    
N101     N      0.656370000000     0.853060000000     0.192580000000    -0.169805   
N102     N      0.606150000000     0.899910000000     0.128510000000    -0.177129   
N103     N      0.904520000000     0.602810000000     0.133670000000    -0.170011   
N104     N      0.858520000000     0.649600000000     0.200650000000    -0.177196   
N105     N      0.914120000000     0.912270000000     0.431430000000    -0.169323   
N106     N      0.868630000000     0.863240000000     0.365220000000    -0.176709   
N107     N      0.856140000000     0.654950000000     0.380850000000    -0.171458   
N108     N      0.901760000000     0.606470000000     0.446810000000    -0.177435   
N109     N      0.607460000000     0.909610000000     0.444050000000    -0.169135   
N110     N      0.657670000000     0.862600000000     0.379830000000    -0.17649    
N111     N      0.897450000000     0.897230000000     0.116690000000    -0.171101   
N112     N      0.851040000000     0.847090000000     0.181100000000    -0.175933   
N113     N      0.656990000000     0.662490000000     0.690000000000    -0.169178   
N114     N      0.607320000000     0.615420000000     0.625320000000    -0.176127   
N115     N      0.653480000000     0.652610000000     0.878460000000    -0.169977   
N116     N      0.607190000000     0.603060000000     0.943910000000    -0.175434   
N117     N      0.656370000000     0.853060000000     0.692580000000    -0.169803   
N118     N      0.606150000000     0.899910000000     0.628510000000    -0.177117   
N119     N      0.904520000000     0.602810000000     0.633670000000    -0.170006   
N120     N      0.858520000000     0.649600000000     0.700650000000    -0.177194   
N121     N      0.914120000000     0.912270000000     0.931430000000    -0.169297   
N122     N      0.868630000000     0.863240000000     0.865210000000    -0.176755   
N123     N      0.856140000000     0.654950000000     0.880850000000    -0.171457   
N124     N      0.901760000000     0.606470000000     0.946810000000    -0.177398   
N125     N      0.607460000000     0.909610000000     0.944050000000    -0.169099   
N126     N      0.657670000000     0.862600000000     0.879830000000    -0.176487   
N127     N      0.897450000000     0.897230000000     0.616690000000    -0.171104   
N128     N      0.851040000000     0.847090000000     0.681110000000    -0.175981   
O1       O      0.408720000000     0.460980000000     0.077520000000    -0.364448   
O2       O      0.097980000000     0.051710000000     0.084500000000    -0.360459   
O3       O      0.046010000000     0.411930000000     0.081930000000    -0.363546   
O4       O      0.465910000000     0.092930000000     0.089360000000    -0.359853   
O5       O      0.097810000000     0.462220000000     0.085480000000    -0.364447   
O6       O      0.409550000000     0.047740000000     0.080650000000    -0.357734   
O7       O      0.046920000000     0.102630000000     0.079230000000    -0.355947   
O8       O      0.459950000000     0.409640000000     0.074730000000    -0.363336   
O9       O      0.411530000000     0.046410000000     0.492520000000    -0.36638    
O10      O      0.098560000000     0.467000000000     0.494020000000    -0.361072   
O11      O      0.470430000000     0.418940000000     0.483190000000    -0.365089   
O12      O      0.045160000000     0.094510000000     0.488630000000    -0.365874   
O13      O      0.098110000000     0.045550000000     0.494210000000    -0.363162   
O14      O      0.417150000000     0.468260000000     0.484040000000    -0.365097   
O15      O      0.463800000000     0.096480000000     0.490700000000    -0.370493   
O16      O      0.045980000000     0.417140000000     0.488730000000    -0.363022   
O17      O      0.504410000000     0.505660000000     0.057950000000    -0.590073   
O18      O      0.294550000000     0.342840000000     0.233530000000    -0.365641   
O19      O      0.216720000000     0.168720000000     0.237650000000    -0.367091   
O20      O      0.351040000000     0.210060000000     0.246390000000    -0.360188   
O21      O      0.164850000000     0.295510000000     0.241880000000    -0.365278   
O22      O      0.295060000000     0.164210000000     0.240450000000    -0.364791   
O23      O      0.216940000000     0.346100000000     0.238960000000    -0.363868   
O24      O      0.164870000000     0.219480000000     0.240620000000    -0.36202    
O25      O      0.344870000000     0.290940000000     0.233580000000    -0.369949   
O26      O      0.217550000000     0.350690000000     0.332600000000    -0.361855   
O27      O      0.295470000000     0.165880000000     0.335990000000    -0.362136   
O28      O      0.354600000000     0.300040000000     0.325090000000    -0.363719   
O29      O      0.161630000000     0.213860000000     0.333780000000    -0.360482   
O30      O      0.213870000000     0.163440000000     0.332770000000    -0.359021   
O31      O      0.304430000000     0.352030000000     0.324870000000    -0.361196   
O32      O      0.165040000000     0.301010000000     0.335390000000    -0.363128   
O33      O      0.350660000000     0.212970000000     0.331630000000    -0.360152   
O34      O      0.257250000000     0.256850000000     0.307560000000    -0.590582   
O35      O      0.408720000000     0.460980000000     0.577520000000    -0.364444   
O36      O      0.097980000000     0.051710000000     0.584500000000    -0.36041    
O37      O      0.046010000000     0.411930000000     0.581930000000    -0.363593   
O38      O      0.465910000000     0.092930000000     0.589360000000    -0.359879   
O39      O      0.097810000000     0.462220000000     0.585480000000    -0.36445    
O40      O      0.409550000000     0.047740000000     0.580650000000    -0.357706   
O41      O      0.046920000000     0.102630000000     0.579230000000    -0.355894   
O42      O      0.459950000000     0.409640000000     0.574730000000    -0.363363   
O43      O      0.411530000000     0.046410000000     0.992520000000    -0.366055   
O44      O      0.098560000000     0.467000000000     0.994030000000    -0.360747   
O45      O      0.470430000000     0.418940000000     0.983190000000    -0.364811   
O46      O      0.045160000000     0.094510000000     0.988630000000    -0.365546   
O47      O      0.098110000000     0.045550000000     0.994210000000    -0.362847   
O48      O      0.417150000000     0.468260000000     0.984040000000    -0.364787   
O49      O      0.463800000000     0.096480000000     0.990700000000    -0.370157   
O50      O      0.045980000000     0.417140000000     0.988730000000    -0.362718   
O51      O      0.504410000000     0.505660000000     0.557950000000    -0.590296   
O52      O      0.294550000000     0.342840000000     0.733530000000    -0.365618   
O53      O      0.216720000000     0.168720000000     0.737640000000    -0.367079   
O54      O      0.351040000000     0.210060000000     0.746390000000    -0.360184   
O55      O      0.164850000000     0.295510000000     0.741880000000    -0.365278   
O56      O      0.295060000000     0.164210000000     0.740450000000    -0.364782   
O57      O      0.216940000000     0.346100000000     0.738960000000    -0.363868   
O58      O      0.164870000000     0.219480000000     0.740620000000    -0.362034   
O59      O      0.344870000000     0.290940000000     0.733570000000    -0.369909   
O60      O      0.217550000000     0.350690000000     0.832600000000    -0.361856   
O61      O      0.295470000000     0.165880000000     0.835990000000    -0.36213    
O62      O      0.354600000000     0.300040000000     0.825090000000    -0.363695   
O63      O      0.161630000000     0.213860000000     0.833780000000    -0.360477   
O64      O      0.213870000000     0.163440000000     0.832770000000    -0.359024   
O65      O      0.304430000000     0.352030000000     0.824870000000    -0.361173   
O66      O      0.165040000000     0.301010000000     0.835390000000    -0.363121   
O67      O      0.350660000000     0.212970000000     0.831630000000    -0.360143   
O68      O      0.257250000000     0.256850000000     0.807560000000    -0.590564   
O69      O      0.408720000000     0.960980000000     0.077520000000    -0.364383   
O70      O      0.097980000000     0.551710000000     0.084500000000    -0.360455   
O71      O      0.046010000000     0.911930000000     0.081930000000    -0.363545   
O72      O      0.465910000000     0.592930000000     0.089360000000    -0.359864   
O73      O      0.097810000000     0.962220000000     0.085480000000    -0.364385   
O74      O      0.409550000000     0.547740000000     0.080650000000    -0.357737   
O75      O      0.046920000000     0.602630000000     0.079230000000    -0.355947   
O76      O      0.459950000000     0.909640000000     0.074730000000    -0.363335   
O77      O      0.411530000000     0.546410000000     0.492520000000    -0.366374   
O78      O      0.098560000000     0.967000000000     0.494020000000    -0.361005   
O79      O      0.470430000000     0.918940000000     0.483190000000    -0.365087   
O80      O      0.045160000000     0.594510000000     0.488630000000    -0.365873   
O81      O      0.098110000000     0.545550000000     0.494210000000    -0.363156   
O82      O      0.417150000000     0.968260000000     0.484040000000    -0.365029   
O83      O      0.463800000000     0.596480000000     0.490700000000    -0.370492   
O84      O      0.045980000000     0.917140000000     0.488730000000    -0.36302    
O85      O      0.504410000000     0.005660000000     0.057950000000    -0.590101   
O86      O      0.294550000000     0.842840000000     0.233530000000    -0.365701   
O87      O      0.216720000000     0.668720000000     0.237650000000    -0.367086   
O88      O      0.351040000000     0.710060000000     0.246390000000    -0.360192   
O89      O      0.164850000000     0.795510000000     0.241880000000    -0.365285   
O90      O      0.295060000000     0.664210000000     0.240450000000    -0.364785   
O91      O      0.216940000000     0.846100000000     0.238960000000    -0.363906   
O92      O      0.164870000000     0.719480000000     0.240620000000    -0.36202    
O93      O      0.344870000000     0.790940000000     0.233580000000    -0.369881   
O94      O      0.217550000000     0.850690000000     0.332600000000    -0.361903   
O95      O      0.295470000000     0.665880000000     0.335990000000    -0.362134   
O96      O      0.354600000000     0.800040000000     0.325090000000    -0.363729   
O97      O      0.161630000000     0.713860000000     0.333780000000    -0.360564   
O98      O      0.213870000000     0.663440000000     0.332770000000    -0.359001   
O99      O      0.304430000000     0.852030000000     0.324870000000    -0.361244   
O100     O      0.165040000000     0.801010000000     0.335390000000    -0.363136   
O101     O      0.350660000000     0.712970000000     0.331630000000    -0.360155   
O102     O      0.257250000000     0.756850000000     0.307560000000    -0.59055    
O103     O      0.408720000000     0.960980000000     0.577520000000    -0.364379   
O104     O      0.097980000000     0.551710000000     0.584500000000    -0.360406   
O105     O      0.046010000000     0.911930000000     0.581930000000    -0.363592   
O106     O      0.465910000000     0.592930000000     0.589360000000    -0.35989    
O107     O      0.097810000000     0.962220000000     0.585480000000    -0.364388   
O108     O      0.409550000000     0.547740000000     0.580650000000    -0.357709   
O109     O      0.046920000000     0.602630000000     0.579230000000    -0.355894   
O110     O      0.459950000000     0.909640000000     0.574730000000    -0.363362   
O111     O      0.411530000000     0.546410000000     0.992520000000    -0.366049   
O112     O      0.098560000000     0.967000000000     0.994030000000    -0.36068    
O113     O      0.470430000000     0.918940000000     0.983190000000    -0.364809   
O114     O      0.045160000000     0.594510000000     0.988630000000    -0.365545   
O115     O      0.098110000000     0.545550000000     0.994210000000    -0.36284    
O116     O      0.417150000000     0.968260000000     0.984040000000    -0.364719   
O117     O      0.463800000000     0.596480000000     0.990700000000    -0.370156   
O118     O      0.045980000000     0.917140000000     0.988730000000    -0.362717   
O119     O      0.504410000000     0.005660000000     0.557950000000    -0.590324   
O120     O      0.294550000000     0.842840000000     0.733530000000    -0.365678   
O121     O      0.216720000000     0.668720000000     0.737640000000    -0.367074   
O122     O      0.351040000000     0.710060000000     0.746390000000    -0.360188   
O123     O      0.164850000000     0.795510000000     0.741880000000    -0.365284   
O124     O      0.295060000000     0.664210000000     0.740450000000    -0.364777   
O125     O      0.216940000000     0.846100000000     0.738960000000    -0.363906   
O126     O      0.164870000000     0.719480000000     0.740620000000    -0.362033   
O127     O      0.344870000000     0.790940000000     0.733570000000    -0.369841   
O128     O      0.217550000000     0.850690000000     0.832600000000    -0.361904   
O129     O      0.295470000000     0.665880000000     0.835990000000    -0.362128   
O130     O      0.354600000000     0.800040000000     0.825090000000    -0.363705   
O131     O      0.161630000000     0.713860000000     0.833780000000    -0.360559   
O132     O      0.213870000000     0.663440000000     0.832770000000    -0.359004   
O133     O      0.304430000000     0.852030000000     0.824870000000    -0.361221   
O134     O      0.165040000000     0.801010000000     0.835390000000    -0.363129   
O135     O      0.350660000000     0.712970000000     0.831630000000    -0.360146   
O136     O      0.257250000000     0.756850000000     0.807560000000    -0.590532   
O137     O      0.908720000000     0.460980000000     0.077520000000    -0.364395   
O138     O      0.597980000000     0.051710000000     0.084500000000    -0.360499   
O139     O      0.546010000000     0.411930000000     0.081930000000    -0.363547   
O140     O      0.965910000000     0.092930000000     0.089360000000    -0.359764   
O141     O      0.597810000000     0.462220000000     0.085480000000    -0.364451   
O142     O      0.909550000000     0.047740000000     0.080650000000    -0.357684   
O143     O      0.546930000000     0.102630000000     0.079230000000    -0.356013   
O144     O      0.959950000000     0.409640000000     0.074730000000    -0.363254   
O145     O      0.911530000000     0.046410000000     0.492520000000    -0.366293   
O146     O      0.598560000000     0.467000000000     0.494020000000    -0.361071   
O147     O      0.970430000000     0.418940000000     0.483190000000    -0.365006   
O148     O      0.545160000000     0.094510000000     0.488630000000    -0.365884   
O149     O      0.598100000000     0.045550000000     0.494210000000    -0.363245   
O150     O      0.917150000000     0.468260000000     0.484040000000    -0.365053   
O151     O      0.963810000000     0.096480000000     0.490700000000    -0.370341   
O152     O      0.545980000000     0.417140000000     0.488730000000    -0.363011   
O153     O      0.004410000000     0.505660000000     0.057950000000    -0.590134   
O154     O      0.794550000000     0.342840000000     0.233530000000    -0.36564    
O155     O      0.716720000000     0.168720000000     0.237650000000    -0.367168   
O156     O      0.851040000000     0.210060000000     0.246390000000    -0.360189   
O157     O      0.664850000000     0.295510000000     0.241880000000    -0.365276   
O158     O      0.795060000000     0.164210000000     0.240450000000    -0.36479    
O159     O      0.716940000000     0.346100000000     0.238960000000    -0.363867   
O160     O      0.664870000000     0.219480000000     0.240620000000    -0.361998   
O161     O      0.844870000000     0.290940000000     0.233580000000    -0.369951   
O162     O      0.717550000000     0.350690000000     0.332600000000    -0.361774   
O163     O      0.795470000000     0.165880000000     0.335990000000    -0.362164   
O164     O      0.854610000000     0.300040000000     0.325090000000    -0.363646   
O165     O      0.661630000000     0.213860000000     0.333780000000    -0.360476   
O166     O      0.713870000000     0.163440000000     0.332770000000    -0.359019   
O167     O      0.804430000000     0.352030000000     0.324870000000    -0.361187   
O168     O      0.665040000000     0.301010000000     0.335390000000    -0.363141   
O169     O      0.850650000000     0.212970000000     0.331630000000    -0.360248   
O170     O      0.757250000000     0.256850000000     0.307560000000    -0.590582   
O171     O      0.908720000000     0.460980000000     0.577520000000    -0.364391   
O172     O      0.597980000000     0.051710000000     0.584500000000    -0.36045    
O173     O      0.546010000000     0.411930000000     0.581930000000    -0.363593   
O174     O      0.965910000000     0.092930000000     0.589360000000    -0.35979    
O175     O      0.597810000000     0.462220000000     0.585480000000    -0.364454   
O176     O      0.909550000000     0.047740000000     0.580650000000    -0.357656   
O177     O      0.546930000000     0.102630000000     0.579230000000    -0.35596    
O178     O      0.959950000000     0.409640000000     0.574730000000    -0.363281   
O179     O      0.911530000000     0.046410000000     0.992520000000    -0.365968   
O180     O      0.598560000000     0.467000000000     0.994030000000    -0.360746   
O181     O      0.970430000000     0.418940000000     0.983190000000    -0.364727   
O182     O      0.545160000000     0.094510000000     0.988630000000    -0.365555   
O183     O      0.598100000000     0.045550000000     0.994210000000    -0.362929   
O184     O      0.917150000000     0.468260000000     0.984040000000    -0.364743   
O185     O      0.963810000000     0.096480000000     0.990700000000    -0.370005   
O186     O      0.545980000000     0.417140000000     0.988730000000    -0.362707   
O187     O      0.004410000000     0.505660000000     0.557950000000    -0.590357   
O188     O      0.794550000000     0.342840000000     0.733530000000    -0.365617   
O189     O      0.716720000000     0.168720000000     0.737640000000    -0.367156   
O190     O      0.851040000000     0.210060000000     0.746390000000    -0.360185   
O191     O      0.664850000000     0.295510000000     0.741880000000    -0.365275   
O192     O      0.795060000000     0.164210000000     0.740450000000    -0.364782   
O193     O      0.716940000000     0.346100000000     0.738960000000    -0.363867   
O194     O      0.664870000000     0.219480000000     0.740620000000    -0.362012   
O195     O      0.844870000000     0.290940000000     0.733570000000    -0.369911   
O196     O      0.717550000000     0.350690000000     0.832600000000    -0.361775   
O197     O      0.795470000000     0.165880000000     0.835990000000    -0.362158   
O198     O      0.854610000000     0.300040000000     0.825090000000    -0.363623   
O199     O      0.661630000000     0.213860000000     0.833780000000    -0.360471   
O200     O      0.713870000000     0.163440000000     0.832770000000    -0.359022   
O201     O      0.804430000000     0.352030000000     0.824870000000    -0.361163   
O202     O      0.665040000000     0.301010000000     0.835390000000    -0.363135   
O203     O      0.850650000000     0.212970000000     0.831630000000    -0.360239   
O204     O      0.757250000000     0.256850000000     0.807560000000    -0.590564   
O205     O      0.908720000000     0.960980000000     0.077520000000    -0.36433    
O206     O      0.597980000000     0.551710000000     0.084500000000    -0.360494   
O207     O      0.546010000000     0.911930000000     0.081930000000    -0.363545   
O208     O      0.965910000000     0.592930000000     0.089360000000    -0.359775   
O209     O      0.597810000000     0.962220000000     0.085480000000    -0.364389   
O210     O      0.909550000000     0.547740000000     0.080650000000    -0.357687   
O211     O      0.546930000000     0.602630000000     0.079230000000    -0.356013   
O212     O      0.959950000000     0.909640000000     0.074730000000    -0.363253   
O213     O      0.911530000000     0.546410000000     0.492520000000    -0.366287   
O214     O      0.598560000000     0.967000000000     0.494020000000    -0.361005   
O215     O      0.970430000000     0.918940000000     0.483190000000    -0.365004   
O216     O      0.545160000000     0.594510000000     0.488630000000    -0.365882   
O217     O      0.598100000000     0.545550000000     0.494210000000    -0.363239   
O218     O      0.917150000000     0.968260000000     0.484040000000    -0.364985   
O219     O      0.963810000000     0.596480000000     0.490700000000    -0.37034    
O220     O      0.545980000000     0.917140000000     0.488730000000    -0.363009   
O221     O      0.004410000000     0.005660000000     0.057950000000    -0.590162   
O222     O      0.794550000000     0.842840000000     0.233530000000    -0.3657     
O223     O      0.716720000000     0.668720000000     0.237650000000    -0.367162   
O224     O      0.851040000000     0.710060000000     0.246390000000    -0.360193   
O225     O      0.664850000000     0.795510000000     0.241880000000    -0.365283   
O226     O      0.795060000000     0.664210000000     0.240450000000    -0.364784   
O227     O      0.716940000000     0.846100000000     0.238960000000    -0.363905   
O228     O      0.664870000000     0.719480000000     0.240620000000    -0.361998   
O229     O      0.844870000000     0.790940000000     0.233580000000    -0.369883   
O230     O      0.717550000000     0.850690000000     0.332600000000    -0.361822   
O231     O      0.795470000000     0.665880000000     0.335990000000    -0.362162   
O232     O      0.854610000000     0.800040000000     0.325090000000    -0.363657   
O233     O      0.661630000000     0.713860000000     0.333780000000    -0.360558   
O234     O      0.713870000000     0.663440000000     0.332770000000    -0.358999   
O235     O      0.804430000000     0.852030000000     0.324870000000    -0.361235   
O236     O      0.665040000000     0.801010000000     0.335390000000    -0.363149   
O237     O      0.850650000000     0.712970000000     0.331630000000    -0.360251   
O238     O      0.757250000000     0.756850000000     0.307560000000    -0.59055    
O239     O      0.908720000000     0.960980000000     0.577520000000    -0.364326   
O240     O      0.597980000000     0.551710000000     0.584500000000    -0.360445   
O241     O      0.546010000000     0.911930000000     0.581930000000    -0.363592   
O242     O      0.965910000000     0.592930000000     0.589360000000    -0.359801   
O243     O      0.597810000000     0.962220000000     0.585480000000    -0.364391   
O244     O      0.909550000000     0.547740000000     0.580650000000    -0.35766    
O245     O      0.546930000000     0.602630000000     0.579230000000    -0.35596    
O246     O      0.959950000000     0.909640000000     0.574730000000    -0.36328    
O247     O      0.911530000000     0.546410000000     0.992520000000    -0.365962   
O248     O      0.598560000000     0.967000000000     0.994030000000    -0.36068    
O249     O      0.970430000000     0.918940000000     0.983190000000    -0.364725   
O250     O      0.545160000000     0.594510000000     0.988630000000    -0.365554   
O251     O      0.598100000000     0.545550000000     0.994210000000    -0.362923   
O252     O      0.917150000000     0.968260000000     0.984040000000    -0.364675   
O253     O      0.963810000000     0.596480000000     0.990700000000    -0.370004   
O254     O      0.545980000000     0.917140000000     0.988730000000    -0.362706   
O255     O      0.004410000000     0.005660000000     0.557950000000    -0.590385   
O256     O      0.794550000000     0.842840000000     0.733530000000    -0.365677   
O257     O      0.716720000000     0.668720000000     0.737640000000    -0.367151   
O258     O      0.851040000000     0.710060000000     0.746390000000    -0.360189   
O259     O      0.664850000000     0.795510000000     0.741880000000    -0.365282   
O260     O      0.795060000000     0.664210000000     0.740450000000    -0.364776   
O261     O      0.716940000000     0.846100000000     0.738960000000    -0.363905   
O262     O      0.664870000000     0.719480000000     0.740620000000    -0.362012   
O263     O      0.844870000000     0.790940000000     0.733570000000    -0.369844   
O264     O      0.717550000000     0.850690000000     0.832600000000    -0.361823   
O265     O      0.795470000000     0.665880000000     0.835990000000    -0.362156   
O266     O      0.854610000000     0.800040000000     0.825090000000    -0.363633   
O267     O      0.661630000000     0.713860000000     0.833780000000    -0.360553   
O268     O      0.713870000000     0.663440000000     0.832770000000    -0.359002   
O269     O      0.804430000000     0.852030000000     0.824870000000    -0.361211   
O270     O      0.665040000000     0.801010000000     0.835390000000    -0.363142   
O271     O      0.850650000000     0.712970000000     0.831630000000    -0.360242   
O272     O      0.757250000000     0.756850000000     0.807560000000    -0.590532   
S1       S      0.044430000000     0.181630000000     0.122740000000    -0.0156603  
S2       S      0.179080000000     0.047250000000     0.453750000000    -0.0155299  
S3       S      0.041590000000     0.335220000000     0.129460000000    -0.0164747  
S4       S      0.435950000000     0.172970000000     0.244190000000    -0.0189009  
S5       S      0.438570000000     0.304850000000     0.358600000000    -0.0173448  
S6       S      0.325240000000     0.061520000000     0.470150000000    -0.0171576  
S7       S      0.225770000000     0.422990000000     0.387390000000    -0.0137351  
S8       S      0.409280000000     0.278050000000     0.168590000000    -0.014528   
S9       S      0.044430000000     0.181630000000     0.622740000000    -0.0156051  
S10      S      0.179080000000     0.047250000000     0.953750000000    -0.0154703  
S11      S      0.041590000000     0.335220000000     0.629460000000    -0.016352   
S12      S      0.435950000000     0.172970000000     0.744190000000    -0.0189181  
S13      S      0.438570000000     0.304850000000     0.858600000000    -0.0173338  
S14      S      0.325240000000     0.061520000000     0.970150000000    -0.0169311  
S15      S      0.225770000000     0.422990000000     0.887390000000    -0.0137242  
S16      S      0.409280000000     0.278050000000     0.668590000000    -0.0144375  
S17      S      0.044430000000     0.681630000000     0.122740000000    -0.0156605  
S18      S      0.179080000000     0.547250000000     0.453750000000    -0.0154783  
S19      S      0.041590000000     0.835220000000     0.129460000000    -0.0164764  
S20      S      0.435950000000     0.672970000000     0.244190000000    -0.0188969  
S21      S      0.438570000000     0.804850000000     0.358600000000    -0.0173437  
S22      S      0.325240000000     0.561520000000     0.470150000000    -0.0171209  
S23      S      0.225770000000     0.922990000000     0.387390000000    -0.0137009  
S24      S      0.409280000000     0.778050000000     0.168590000000    -0.0145332  
S25      S      0.044430000000     0.681630000000     0.622740000000    -0.0156053  
S26      S      0.179080000000     0.547250000000     0.953750000000    -0.0154187  
S27      S      0.041590000000     0.835220000000     0.629460000000    -0.0163537  
S28      S      0.435950000000     0.672970000000     0.744190000000    -0.0189141  
S29      S      0.438570000000     0.804850000000     0.858600000000    -0.0173327  
S30      S      0.325240000000     0.561520000000     0.970150000000    -0.0168945  
S31      S      0.225770000000     0.922990000000     0.887390000000    -0.01369    
S32      S      0.409280000000     0.778050000000     0.668590000000    -0.0144426  
S33      S      0.544430000000     0.181630000000     0.122740000000    -0.0155967  
S34      S      0.679080000000     0.047250000000     0.453750000000    -0.0155469  
S35      S      0.541590000000     0.335220000000     0.129460000000    -0.0164283  
S36      S      0.935950000000     0.172970000000     0.244190000000    -0.0188779  
S37      S      0.938580000000     0.304850000000     0.358600000000    -0.0173064  
S38      S      0.825240000000     0.061520000000     0.470150000000    -0.0171528  
S39      S      0.725770000000     0.422990000000     0.387390000000    -0.0137366  
S40      S      0.909280000000     0.278050000000     0.168590000000    -0.0145081  
S41      S      0.544430000000     0.181630000000     0.622740000000    -0.0155415  
S42      S      0.679080000000     0.047250000000     0.953750000000    -0.0154873  
S43      S      0.541590000000     0.335220000000     0.629460000000    -0.0163056  
S44      S      0.935950000000     0.172970000000     0.744190000000    -0.0188951  
S45      S      0.938580000000     0.304850000000     0.858600000000    -0.0172953  
S46      S      0.825240000000     0.061520000000     0.970150000000    -0.0169264  
S47      S      0.725770000000     0.422990000000     0.887390000000    -0.0137257  
S48      S      0.909280000000     0.278050000000     0.668590000000    -0.0144175  
S49      S      0.544430000000     0.681630000000     0.122740000000    -0.0155969  
S50      S      0.679080000000     0.547250000000     0.453750000000    -0.0154952  
S51      S      0.541590000000     0.835220000000     0.129460000000    -0.0164301  
S52      S      0.935950000000     0.672970000000     0.244190000000    -0.0188738  
S53      S      0.938580000000     0.804850000000     0.358600000000    -0.0173053  
S54      S      0.825240000000     0.561520000000     0.470150000000    -0.0171161  
S55      S      0.725770000000     0.922990000000     0.387390000000    -0.0137024  
S56      S      0.909280000000     0.778050000000     0.168590000000    -0.0145132  
S57      S      0.544430000000     0.681630000000     0.622740000000    -0.0155417  
S58      S      0.679080000000     0.547250000000     0.953750000000    -0.0154357  
S59      S      0.541590000000     0.835220000000     0.629460000000    -0.0163073  
S60      S      0.935950000000     0.672970000000     0.744190000000    -0.0188911  
S61      S      0.938580000000     0.804850000000     0.858600000000    -0.0172942  
S62      S      0.825240000000     0.561520000000     0.970150000000    -0.0168897  
S63      S      0.725770000000     0.922990000000     0.887390000000    -0.0136915  
S64      S      0.909280000000     0.778050000000     0.668590000000    -0.0144227  


