data_structure

_audit_creation_method RASPA-1.0
_audit_creation_date 2023-6-4
_audit_author_name 'Poobodin Mano'

_cell_length_a    39.4434
_cell_length_b    39.4371
_cell_length_c    40.7885
_cell_angle_alpha 87.1427
_cell_angle_beta  93.8127
_cell_angle_gamma 120.431
_cell_volume      54576.6

_symmetry_cell_setting          triclinic
_symmetry_space_group_name_Hall 'P 1'
_symmetry_space_group_name_H-M  'P 1'
_symmetry_Int_Tables_number     1

_symmetry_equiv_pos_as_xyz 'x,y,z'

loop_
_atom_site_label
_atom_site_type_symbol
_atom_site_fract_x
_atom_site_fract_y
_atom_site_fract_z
_atom_site_charge
C1       C      0.045320000000     0.128950000000     0.050980000000     0.466576   
C2       C      0.014860000000     0.982590000000     0.017510000000     0.476168   
C3       C      0.086230000000     0.054250000000     0.982390000000     0.440559   
C4       C      0.996840000000     0.050460000000     0.102240000000     0.474366   
C5       C      0.077550000000     0.041960000000     0.142510000000     0.481913   
C6       C      0.162160000000     0.093950000000     0.046180000000     0.439584   
C7       C      0.149180000000     0.160760000000     0.072240000000     0.479167   
C8       C      0.041160000000     0.960140000000     0.087490000000     0.369757   
C9       C      0.002770000000     0.996040000000     0.479470000000     0.46706    
C10      C      0.016270000000     0.104700000000     0.606330000000     0.387108   
C11      C      0.921230000000     0.021920000000     0.552140000000     0.483073   
C12      C      0.053070000000     0.083560000000     0.514880000000     0.456891   
C13      C      0.099430000000     0.060750000000     0.579560000000     0.443508   
C14      C      0.912840000000     0.931590000000     0.584520000000     0.486138   
C15      C      0.988880000000     0.928020000000     0.544620000000     0.448936   
C16      C      0.034620000000     0.027760000000     0.641530000000     0.494513   
C17      C      0.010720000000     0.455650000000     0.947590000000     0.384343   
C18      C      0.087920000000     0.652950000000     0.985710000000     0.480116   
C19      C      0.003070000000     0.577690000000     0.987850000000     0.437177   
C20      C      0.062250000000     0.551540000000     0.904590000000     0.487964   
C21      C      0.143910000000     0.554900000000     0.952720000000     0.474825   
C22      C      0.025140000000     0.533510000000     0.058730000000     0.438711   
C23      C      0.041420000000     0.470740000000     0.025950000000     0.482306   
C24      C      0.157970000000     0.621340000000     0.014930000000     0.456902   
C25      C      0.898560000000     0.433640000000     0.455970000000     0.483069   
C26      C      0.986400000000     0.593930000000     0.445760000000     0.477747   
C27      C      0.902720000000     0.496100000000     0.525720000000     0.459264   
C28      C      0.995100000000     0.502260000000     0.399250000000     0.482609   
C29      C      0.057620000000     0.498120000000     0.471710000000     0.498394   
C30      C      0.998760000000     0.520090000000     0.559310000000     0.457621   
C31      C      0.941030000000     0.404230000000     0.525820000000     0.428554   
C32      C      0.058780000000     0.598390000000     0.505660000000     0.476083   
C33      C      0.514250000000     0.108630000000     0.029910000000     0.478213   
C34      C      0.565350000000     0.978010000000     0.049110000000     0.442843   
C35      C      0.558450000000     0.080440000000     0.974900000000     0.4544     
C36      C      0.490320000000     0.982020000000     0.075940000000     0.493015   
C37      C      0.556710000000     0.032250000000     0.144000000000     0.377206   
C38      C      0.657540000000     0.126010000000     0.013320000000     0.465641   
C39      C      0.582230000000     0.142860000000     0.098130000000     0.465789   
C40      C      0.651330000000     0.067690000000     0.073590000000     0.454108   
C41      C      0.437020000000     0.072200000000     0.511670000000     0.442253   
C42      C      0.509840000000     0.948580000000     0.530930000000     0.477039   
C43      C      0.485460000000     0.003740000000     0.474430000000     0.460203   
C44      C      0.410110000000     0.953660000000     0.573920000000     0.488291   
C45      C      0.486940000000     0.016670000000     0.635500000000     0.488393   
C46      C      0.559920000000     0.099930000000     0.495240000000     0.460116   
C47      C      0.514900000000     0.111560000000     0.572060000000     0.458425   
C48      C      0.582110000000     0.026640000000     0.584720000000     0.47897    
C49      C      0.516230000000     0.444600000000     0.001270000000     0.373916   
C50      C      0.579190000000     0.645060000000     0.998320000000     0.484562   
C51      C      0.502330000000     0.568520000000     0.024240000000     0.442982   
C52      C      0.541900000000     0.521720000000     0.942430000000     0.483527   
C53      C      0.641340000000     0.551360000000     0.978790000000     0.479216   
C54      C      0.548300000000     0.548490000000     0.095630000000     0.447317   
C55      C      0.566200000000     0.482750000000     0.070850000000     0.463887   
C56      C      0.661630000000     0.630230000000     0.022950000000     0.454425   
C57      C      0.407100000000     0.425560000000     0.504300000000     0.460176   
C58      C      0.498910000000     0.599410000000     0.496380000000     0.469225   
C59      C      0.416130000000     0.514740000000     0.556200000000     0.466443   
C60      C      0.516120000000     0.528900000000     0.438130000000     0.477068   
C61      C      0.565420000000     0.506830000000     0.508180000000     0.463988   
C62      C      0.470330000000     0.486350000000     0.607640000000     0.398378   
C63      C      0.498580000000     0.438980000000     0.543660000000     0.469401   
C64      C      0.554040000000     0.605640000000     0.571160000000     0.415547   
C65      C      0.442100000000     0.446780000000     0.691360000000    -0.143693   
C66      C      0.510030000000     0.524050000000     0.891760000000     0.0768225  
C67      C      0.523280000000     0.472130000000     0.902950000000     0.077337   
C68      C      0.496910000000     0.511170000000     0.859820000000    -0.0974831  
C69      C      0.516610000000     0.464400000000     0.795920000000    -0.0376699  
C70      C      0.512240000000     0.461900000000     0.761690000000    -0.0317926  
C71      C      0.489830000000     0.468870000000     0.813690000000    -0.0067272  
C72      C      0.510820000000     0.458700000000     0.870920000000    -0.0962075  
C73      C      0.480880000000     0.463540000000     0.744800000000    -0.0164637  
C74      C      0.511820000000     0.491880000000     0.691190000000    -0.107539   
C75      C      0.453000000000     0.465880000000     0.762880000000    -0.0314879  
C76      C      0.508010000000     0.498280000000     0.657580000000     0.0813423  
C77      C      0.438440000000     0.455390000000     0.658040000000     0.189069   
C78      C      0.457420000000     0.468460000000     0.796950000000    -0.0380889  
C79      C      0.498340000000     0.478900000000     0.848810000000     0.0510825  
C80      C      0.478560000000     0.466140000000     0.708470000000     0.0718632  
C81      C      0.559870000000     0.559720000000     0.356840000000    -0.143276   
C82      C      0.508510000000     0.534290000000     0.141200000000     0.0729582  
C83      C      0.578030000000     0.566890000000     0.149270000000     0.0705616  
C84      C      0.504470000000     0.535420000000     0.174720000000    -0.0961244  
C85      C      0.504430000000     0.518650000000     0.247590000000    -0.0377691  
C86      C      0.501360000000     0.517680000000     0.281480000000    -0.0318173  
C87      C      0.534040000000     0.552210000000     0.231930000000    -0.0064052  
C88      C      0.575060000000     0.568400000000     0.182980000000    -0.0951565  
C89      C      0.527870000000     0.550200000000     0.300490000000    -0.016743   
C90      C      0.489580000000     0.530100000000     0.351090000000    -0.108997   
C91      C      0.557250000000     0.583970000000     0.284870000000    -0.0320764  
C92      C      0.487710000000     0.524140000000     0.384910000000     0.0805619  
C93      C      0.557340000000     0.551940000000     0.390880000000     0.185894   
C94      C      0.560260000000     0.585000000000     0.250870000000    -0.0382215  
C95      C      0.537950000000     0.552400000000     0.196070000000     0.0491092  
C96      C      0.525850000000     0.547750000000     0.336670000000     0.0716546  
C97      C      0.460620000000     0.666840000000     0.490310000000    -0.142526   
C98      C      0.536430000000     0.918760000000     0.499520000000     0.0740494  
C99      C      0.473550000000     0.879820000000     0.521520000000     0.0743341  
C100     C      0.534360000000     0.885150000000     0.487320000000    -0.0954563  
C101     C      0.533560000000     0.807510000000     0.486940000000    -0.0375126  
C102     C      0.530980000000     0.771380000000     0.482140000000    -0.031583   
C103     C      0.499840000000     0.811190000000     0.483130000000    -0.00611488 
C104     C      0.470570000000     0.845760000000     0.509800000000    -0.0946057  
C105     C      0.494600000000     0.738040000000     0.473630000000    -0.0157898  
C106     C      0.518770000000     0.692900000000     0.459380000000    -0.108244   
C107     C      0.461310000000     0.742150000000     0.468140000000    -0.0321004  
C108     C      0.518000000000     0.657200000000     0.464190000000     0.0802357  
C109     C      0.460180000000     0.631050000000     0.494460000000     0.192053   
C110     C      0.463940000000     0.778330000000     0.472660000000    -0.0378786  
C111     C      0.501390000000     0.847920000000     0.492860000000     0.0490401  
C112     C      0.490900000000     0.698610000000     0.473780000000     0.0713519  
C113     C      0.564180000000     0.219010000000     0.569380000000    -0.144209   
C114     C      0.525370000000     0.417160000000     0.588520000000     0.0782613  
C115     C      0.514700000000     0.389870000000     0.535660000000     0.0802653  
C116     C      0.537370000000     0.391100000000     0.601510000000    -0.0956012  
C117     C      0.515420000000     0.299100000000     0.607670000000    -0.0376339  
C118     C      0.517480000000     0.264740000000     0.610830000000    -0.031079   
C119     C      0.545870000000     0.333140000000     0.593470000000    -0.00694123 
C120     C      0.527510000000     0.364420000000     0.547550000000    -0.0975935  
C121     C      0.550250000000     0.263940000000     0.600030000000    -0.0161582  
C122     C      0.528640000000     0.194260000000     0.618710000000    -0.108038   
C123     C      0.582320000000     0.299340000000     0.588680000000    -0.0315261  
C124     C      0.521290000000     0.156750000000     0.611610000000     0.0790256  
C125     C      0.558180000000     0.181500000000     0.563830000000     0.192143   
C126     C      0.579890000000     0.333490000000     0.584990000000    -0.0384176  
C127     C      0.538130000000     0.364290000000     0.580820000000     0.0524117  
C128     C      0.548460000000     0.225580000000     0.596540000000     0.0707849  
C129     C      0.546020000000     0.111550000000     0.889770000000    -0.14033    
C130     C      0.525550000000     0.031550000000     0.685940000000     0.0744561  
C131     C      0.466140000000     0.033120000000     0.682720000000     0.0756474  
C132     C      0.532070000000     0.042410000000     0.718930000000    -0.0953018  
C133     C      0.546880000000     0.086000000000     0.783500000000    -0.0378878  
C134     C      0.552120000000     0.093110000000     0.817310000000    -0.032436   
C135     C      0.510050000000     0.057680000000     0.769810000000    -0.00679584 
C136     C      0.471510000000     0.043520000000     0.715720000000    -0.096492   
C137     C      0.520790000000     0.071590000000     0.838140000000    -0.0160994  
C138     C      0.514820000000     0.041320000000     0.893980000000    -0.107662   
C139     C      0.483760000000     0.044040000000     0.824310000000    -0.0326544  
C140     C      0.523390000000     0.044340000000     0.927680000000     0.0790878  
C141     C      0.552320000000     0.113840000000     0.924350000000     0.183131   
C142     C      0.478390000000     0.037330000000     0.790530000000    -0.0378593  
C143     C      0.504740000000     0.048240000000     0.734290000000     0.0494135  
C144     C      0.527400000000     0.075100000000     0.874410000000     0.0693951  
C145     C      0.526660000000     0.040440000000     0.225320000000    -0.137932   
C146     C      0.446510000000     0.985790000000     0.423770000000     0.0776056  
C147     C      0.504120000000     0.981160000000     0.430310000000     0.0781705  
C148     C      0.444530000000     0.979830000000     0.389810000000    -0.0930033  
C149     C      0.468550000000     0.001240000000     0.318590000000    -0.0373857  
C150     C      0.478970000000     0.008060000000     0.285710000000    -0.0325896  
C151     C      0.477780000000     0.977150000000     0.339330000000    -0.00516176 
C152     C      0.503080000000     0.975180000000     0.396900000000    -0.0944261  
C153     C      0.499700000000     0.991700000000     0.272750000000    -0.013187   
C154     C      0.521910000000     0.977660000000     0.220800000000    -0.103723   
C155     C      0.506750000000     0.965750000000     0.293060000000    -0.0321717  
C156     C      0.538220000000     0.989440000000     0.190040000000     0.081157   
C157     C      0.542740000000     0.051550000000     0.194130000000     0.180453   
C158     C      0.495400000000     0.958120000000     0.325570000000    -0.0374098  
C159     C      0.474080000000     0.976060000000     0.375720000000     0.0496187  
C160     C      0.515550000000     0.003040000000     0.238990000000     0.0663815  
C161     C      0.526600000000     0.700120000000     0.977810000000    -0.141334   
C162     C      0.564800000000     0.919050000000     0.066240000000     0.0728376  
C163     C      0.532310000000     0.921410000000     0.015880000000     0.0718754  
C164     C      0.554650000000     0.880320000000     0.060360000000    -0.0944043  
C165     C      0.514950000000     0.792690000000     0.047090000000    -0.038733   
C166     C      0.514370000000     0.757930000000     0.040700000000    -0.0316608  
C167     C      0.526280000000     0.822640000000     0.022970000000    -0.00580238 
C168     C      0.521860000000     0.882910000000     0.009160000000    -0.0947622  
C169     C      0.525500000000     0.752590000000     0.010170000000    -0.0174256  
C170     C      0.559270000000     0.717010000000     0.031180000000    -0.111977   
C171     C      0.533680000000     0.781140000000     0.985190000000    -0.0311439  
C172     C      0.573580000000     0.692040000000     0.026870000000     0.0867908  
C173     C      0.541910000000     0.675120000000     0.973550000000     0.18633    
C174     C      0.534040000000     0.815840000000     0.991520000000    -0.0380747  
C175     C      0.533490000000     0.862050000000     0.031260000000     0.048215   
C176     C      0.535700000000     0.721590000000     0.006610000000     0.072268   
C177     C      0.556780000000     0.212370000000     0.129950000000    -0.141539   
C178     C      0.609030000000     0.458600000000     0.088320000000     0.0798018  
C179     C      0.542540000000     0.423940000000     0.103120000000     0.0755971  
C180     C      0.613550000000     0.426620000000     0.098480000000    -0.0928938  
C181     C      0.617690000000     0.355610000000     0.127210000000    -0.0375959  
C182     C      0.619720000000     0.321040000000     0.129380000000    -0.0325182  
C183     C      0.583130000000     0.354890000000     0.114800000000    -0.00589041 
C184     C      0.546090000000     0.391560000000     0.113720000000    -0.0942374  
C185     C      0.587180000000     0.284920000000     0.119380000000    -0.015882   
C186     C      0.621920000000     0.247550000000     0.110080000000    -0.106954   
C187     C      0.552600000000     0.284210000000     0.107310000000    -0.0330049  
C188     C      0.620330000000     0.211660000000     0.106390000000     0.0763032  
C189     C      0.556050000000     0.176650000000     0.126860000000     0.184473   
C190     C      0.550620000000     0.318620000000     0.105000000000    -0.0374083  
C191     C      0.581300000000     0.391760000000     0.109900000000     0.0493812  
C192     C      0.589040000000     0.248020000000     0.120290000000     0.0688222  
C193     C      0.807720000000     0.361810000000     0.412520000000    -0.14127    
C194     C      0.579340000000     0.151440000000     0.454670000000     0.0758943  
C195     C      0.626810000000     0.148670000000     0.491890000000     0.0711305  
C196     C      0.608060000000     0.188190000000     0.442620000000    -0.0957372  
C197     C      0.695960000000     0.272220000000     0.475490000000    -0.0380522  
C198     C      0.728490000000     0.309120000000     0.470290000000    -0.0318154  
C199     C      0.676250000000     0.246950000000     0.449170000000    -0.00698578 
C200     C      0.655970000000     0.184870000000     0.480440000000    -0.097665   
C201     C      0.742020000000     0.322190000000     0.438480000000    -0.0153674  
C202     C      0.793110000000     0.389360000000     0.456870000000    -0.107567   
C203     C      0.720610000000     0.297800000000     0.411720000000    -0.0318988  
C204     C      0.832870000000     0.416650000000     0.461150000000     0.0843695  
C205     C      0.847470000000     0.392030000000     0.415570000000     0.187187   
C206     C      0.687820000000     0.260370000000     0.417050000000    -0.0379944  
C207     C      0.646450000000     0.205760000000     0.456570000000     0.0489917  
C208     C      0.780670000000     0.358920000000     0.434740000000     0.0705499  
C209     C      0.326920000000     0.853680000000     0.589530000000    -0.142883   
C210     C      0.088420000000     0.659470000000     0.533490000000     0.0742747  
C211     C      0.128300000000     0.636210000000     0.514300000000     0.0745276  
C212     C      0.122000000000     0.694710000000     0.543130000000    -0.0964097  
C213     C      0.203250000000     0.757010000000     0.574680000000    -0.0381287  
C214     C      0.237940000000     0.792810000000     0.580890000000    -0.0324462  
C215     C      0.195310000000     0.739670000000     0.543770000000    -0.00714252 
C216     C      0.162310000000     0.671180000000     0.523140000000    -0.0965459  
C217     C      0.264790000000     0.812200000000     0.556050000000    -0.0165981  
C218     C      0.312110000000     0.882300000000     0.541380000000    -0.10807    
C219     C      0.256420000000     0.795160000000     0.524990000000    -0.0323552  
C220     C      0.347590000000     0.917200000000     0.547040000000     0.0822001  
C221     C      0.362370000000     0.889320000000     0.595140000000     0.186862   
C222     C      0.222200000000     0.759110000000     0.519000000000    -0.037978   
C223     C      0.159400000000     0.701210000000     0.537100000000     0.0497554  
C224     C      0.301750000000     0.849910000000     0.562440000000     0.0711461  
C225     C      0.810770000000     0.459770000000     0.569780000000    -0.144124   
C226     C      0.595280000000     0.468410000000     0.500560000000     0.074395   
C227     C      0.611900000000     0.506910000000     0.548120000000     0.0774067  
C228     C      0.623060000000     0.457400000000     0.510360000000    -0.0948238  
C229     C      0.715160000000     0.497020000000     0.562590000000    -0.0377157  
C230     C      0.749780000000     0.495570000000     0.565080000000    -0.0322312  
C231     C      0.680480000000     0.466330000000     0.547770000000    -0.00678469 
C232     C      0.638800000000     0.495440000000     0.559190000000    -0.0951056  
C233     C      0.750710000000     0.463720000000     0.552530000000    -0.0181516  
C234     C      0.806570000000     0.488050000000     0.517270000000    -0.111084   
C235     C      0.715910000000     0.431820000000     0.539640000000    -0.032581   
C236     C      0.844890000000     0.497910000000     0.512180000000     0.0773252  
C237     C      0.850050000000     0.470620000000     0.564490000000     0.187242   
C238     C      0.680870000000     0.432870000000     0.537650000000    -0.0385932  
C239     C      0.646100000000     0.471810000000     0.539640000000     0.0496351  
C240     C      0.789160000000     0.468660000000     0.546080000000     0.0716005  
C241     C      0.338660000000     0.539100000000     0.568230000000    -0.145029   
C242     C      0.127640000000     0.531810000000     0.473030000000     0.0807486  
C243     C      0.092460000000     0.476060000000     0.507770000000     0.0794581  
C244     C      0.163340000000     0.535900000000     0.485450000000    -0.0977531  
C245     C      0.235700000000     0.547410000000     0.526290000000    -0.0374686  
C246     C      0.271140000000     0.548610000000     0.535220000000    -0.0321769  
C247     C      0.200780000000     0.511160000000     0.521270000000    -0.00688552 
C248     C      0.127510000000     0.479540000000     0.520940000000    -0.0966492  
C249     C      0.272190000000     0.513580000000     0.539220000000    -0.0167541  
C250     C      0.316870000000     0.488950000000     0.527950000000    -0.10935    
C251     C      0.237020000000     0.477410000000     0.535450000000    -0.0320074  
C252     C      0.351910000000     0.489040000000     0.533450000000     0.0797128  
C253     C      0.373590000000     0.537800000000     0.574390000000     0.185756   
C254     C      0.201820000000     0.476200000000     0.526390000000    -0.0373046  
C255     C      0.163520000000     0.509340000000     0.509490000000     0.0520449  
C256     C      0.309960000000     0.514280000000     0.545140000000     0.0707921  
C257     C      0.046620000000     0.509740000000     0.821720000000    -0.142752   
C258     C      0.011050000000     0.555140000000     0.608500000000     0.0751224  
C259     C      0.020230000000     0.500190000000     0.608840000000     0.0770985  
C260     C      0.017430000000     0.557880000000     0.642540000000    -0.095715   
C261     C      0.002230000000     0.538040000000     0.714590000000    -0.037839   
C262     C      0.005340000000     0.538990000000     0.748910000000    -0.0323315  
C263     C      0.027490000000     0.531040000000     0.696930000000    -0.00625459 
C264     C      0.026760000000     0.502090000000     0.643020000000    -0.0942956  
C265     C      0.033740000000     0.532890000000     0.766440000000    -0.0161575  
C266     C      0.036940000000     0.565120000000     0.818970000000    -0.107771   
C267     C      0.058800000000     0.525580000000     0.748780000000    -0.0318726  
C268     C      0.044780000000     0.569230000000     0.852830000000     0.0786514  
C269     C      0.056510000000     0.515480000000     0.855570000000     0.185892   
C270     C      0.055650000000     0.524570000000     0.714450000000    -0.0379436  
C271     C      0.024250000000     0.530500000000     0.660390000000     0.0496184  
C272     C      0.038260000000     0.535410000000     0.802910000000     0.0701087  
C273     C      0.035580000000     0.533060000000     0.148970000000    -0.141312   
C274     C      0.985150000000     0.465060000000     0.351550000000     0.0740662  
C275     C      0.987950000000     0.526550000000     0.346160000000     0.0745144  
C276     C      0.981240000000     0.461210000000     0.317380000000    -0.0962951  
C277     C      0.956870000000     0.499780000000     0.240470000000    -0.0379616  
C278     C      0.960320000000     0.503040000000     0.206350000000    -0.0326276  
C279     C      0.980460000000     0.489280000000     0.260830000000    -0.00683622 
C280     C      0.983570000000     0.523400000000     0.312000000000    -0.0957004  
C281     C      0.987850000000     0.496420000000     0.192080000000    -0.0160088  
C282     C      0.967440000000     0.492810000000     0.131930000000    -0.107222   
C283     C      0.010130000000     0.484230000000     0.212270000000    -0.0326211  
C284     C      0.977530000000     0.503600000000     0.099220000000     0.079045   
C285     C      0.044720000000     0.545540000000     0.116310000000     0.181341   
C286     C      0.006300000000     0.480450000000     0.246260000000    -0.0376496  
C287     C      0.980810000000     0.490780000000     0.297180000000     0.0494303  
C288     C      0.996880000000     0.506700000000     0.157050000000     0.06987    
C289     C      0.912340000000     0.373720000000     0.926800000000    -0.14056    
C290     C      0.706080000000     0.147440000000     0.973080000000     0.0720701  
C291     C      0.720940000000     0.181980000000     0.022780000000     0.0714976  
C292     C      0.743190000000     0.175030000000     0.961690000000    -0.0948258  
C293     C      0.811040000000     0.254780000000     0.937700000000    -0.0383325  
C294     C      0.846240000000     0.287750000000     0.928100000000    -0.0322914  
C295     C      0.808340000000     0.238090000000     0.969390000000    -0.00610757 
C296     C      0.758260000000     0.209630000000     0.012410000000    -0.0943108  
C297     C      0.879610000000     0.304570000000     0.949890000000    -0.0157107  
C298     C      0.953100000000     0.349240000000     0.951120000000    -0.105191   
C299     C      0.877400000000     0.286550000000     0.980950000000    -0.0318735  
C300     C      0.985750000000     0.387120000000     0.948990000000     0.0774737  
C301     C      0.945850000000     0.411410000000     0.924110000000     0.184049   
C302     C      0.842210000000     0.253800000000     0.990590000000    -0.0388079  
C303     C      0.769690000000     0.206790000000     0.981370000000     0.0477606  
C304     C      0.915500000000     0.342630000000     0.941790000000     0.068078   
C305     C      0.392620000000     0.894940000000     0.057850000000    -0.142594   
C306     C      0.224850000000     0.660190000000     0.002840000000     0.078462   
C307     C      0.206930000000     0.653470000000     0.058080000000     0.0757353  
C308     C      0.262420000000     0.690870000000     0.010930000000    -0.0960738  
C309     C      0.315390000000     0.775560000000     0.024570000000    -0.0372941  
C310     C      0.346480000000     0.813650000000     0.029810000000    -0.0320834  
C311     C      0.306560000000     0.745620000000     0.048500000000    -0.00614196 
C312     C      0.244250000000     0.685330000000     0.066960000000    -0.0944315  
C313     C      0.369650000000     0.823130000000     0.059210000000    -0.0159446  
C314     C      0.437950000000     0.874410000000     0.078440000000    -0.107125   
C315     C      0.361580000000     0.793220000000     0.083040000000    -0.0321956  
C316     C      0.466690000000     0.913860000000     0.082750000000     0.0830073  
C317     C      0.421320000000     0.934350000000     0.063750000000     0.188781   
C318     C      0.330100000000     0.754810000000     0.077820000000    -0.0379312  
C319     C      0.271570000000     0.705900000000     0.042670000000     0.0499136  
C320     C      0.400680000000     0.864650000000     0.065180000000     0.0712657  
C321     C      0.743570000000     0.575230000000     0.998460000000    -0.144525   
C322     C      0.958140000000     0.584510000000     0.950580000000     0.0756832  
C323     C      0.969440000000     0.609790000000     0.004140000000     0.0756278  
C324     C      0.927170000000     0.591710000000     0.944360000000    -0.0940165  
C325     C      0.844740000000     0.575430000000     0.945980000000    -0.0371925  
C326     C      0.807370000000     0.571350000000     0.944890000000    -0.031983   
C327     C      0.876170000000     0.604450000000     0.965410000000    -0.00596756 
C328     C      0.937510000000     0.616120000000     0.999150000000    -0.09272    
C329     C      0.800160000000     0.595540000000     0.963710000000    -0.016773   
C330     C      0.735310000000     0.586420000000     0.940850000000    -0.109566   
C331     C      0.831460000000     0.625420000000     0.982220000000    -0.0329224  
C332     C      0.696260000000     0.575770000000     0.945570000000     0.0806969  
C333     C      0.704570000000     0.565100000000     0.002890000000     0.192476   
C334     C      0.869170000000     0.630140000000     0.982770000000    -0.0377369  
C335     C      0.914670000000     0.605340000000     0.969380000000     0.0481757  
C336     C      0.759210000000     0.586050000000     0.967530000000     0.0725514  
C337     C      0.436170000000     0.610420000000     0.023730000000    -0.13842    
C338     C      0.188670000000     0.533610000000     0.971420000000     0.0751693  
C339     C      0.211290000000     0.591210000000     0.938050000000     0.0725792  
C340     C      0.227100000000     0.540970000000     0.977090000000    -0.0938876  
C341     C      0.326870000000     0.594170000000     0.947090000000    -0.038295   
C342     C      0.364260000000     0.598990000000     0.954800000000    -0.0324205  
C343     C      0.299820000000     0.583880000000     0.971730000000    -0.00595909 
C344     C      0.250240000000     0.599260000000     0.942960000000    -0.0948609  
C345     C      0.375630000000     0.594230000000     0.987400000000    -0.0156923  
C346     C      0.422260000000     0.571350000000     0.976200000000    -0.106014   
C347     C      0.349210000000     0.585920000000     0.012190000000    -0.0317895  
C348     C      0.452830000000     0.564750000000     0.986550000000     0.0817135  
C349     C      0.466570000000     0.602760000000     0.034370000000     0.183611   
C350     C      0.311770000000     0.580640000000     0.004440000000    -0.0379516  
C351     C      0.258620000000     0.574620000000     0.963550000000     0.048761   
C352     C      0.412720000000     0.593390000000     0.995250000000     0.0686263  
C353     C      0.654040000000     0.689660000000     0.573830000000    -0.145026   
C354     C      0.877600000000     0.883160000000     0.625780000000     0.0750696  
C355     C      0.853830000000     0.872810000000     0.570070000000     0.0773824  
C356     C      0.844560000000     0.847790000000     0.635260000000    -0.0965816  
C357     C      0.750260000000     0.788110000000     0.636240000000    -0.0376657  
C358     C      0.712130000000     0.755210000000     0.635660000000    -0.0323301  
C359     C      0.780170000000     0.787420000000     0.619910000000    -0.00768812 
C360     C      0.821160000000     0.837060000000     0.578550000000    -0.097819   
C361     C      0.703780000000     0.721430000000     0.618810000000    -0.0167625  
C362     C      0.632720000000     0.670740000000     0.629030000000    -0.106604   
C363     C      0.734810000000     0.719510000000     0.605670000000    -0.0329023  
C364     C      0.595110000000     0.643230000000     0.616180000000     0.0789606  
C365     C      0.615980000000     0.663670000000     0.561620000000     0.187767   
C366     C      0.772620000000     0.752320000000     0.606030000000    -0.0384195  
C367     C      0.816060000000     0.824470000000     0.611410000000     0.0509202  
C368     C      0.662940000000     0.692920000000     0.607570000000     0.0711992  
C369     C      0.136850000000     0.154780000000     0.468840000000    -0.145151   
C370     C      0.350040000000     0.370480000000     0.525090000000     0.0767297  
C371     C      0.350180000000     0.389010000000     0.468830000000     0.0733281  
C372     C      0.312280000000     0.338300000000     0.520600000000    -0.0957227  
C373     C      0.221060000000     0.296920000000     0.472340000000    -0.0383134  
C374     C      0.183990000000     0.262580000000     0.470510000000    -0.0318856  
C375     C      0.254320000000     0.295140000000     0.484480000000    -0.00632381 
C376     C      0.311900000000     0.357240000000     0.463580000000    -0.0952223  
C377     C      0.180010000000     0.226050000000     0.480120000000    -0.0167905  
C378     C      0.109500000000     0.187750000000     0.495570000000    -0.106478   
C379     C      0.213640000000     0.224440000000     0.491350000000    -0.0307331  
C380     C      0.076890000000     0.151130000000     0.502920000000     0.0858371  
C381     C      0.103530000000     0.118510000000     0.475860000000     0.190693   
C382     C      0.250300000000     0.258600000000     0.493660000000    -0.03873    
C383     C      0.293010000000     0.331150000000     0.489560000000     0.0497945  
C384     C      0.141110000000     0.189480000000     0.480440000000     0.0724809  
C385     C      0.688060000000     0.076790000000     0.583010000000    -0.146668   
C386     C      0.879890000000     0.038670000000     0.577450000000     0.0793604  
C387     C      0.881410000000     0.041940000000     0.519270000000     0.0760674  
C388     C      0.851510000000     0.049370000000     0.576340000000    -0.101021   
C389     C      0.801820000000     0.086410000000     0.567980000000    -0.0382082  
C390     C      0.766540000000     0.082300000000     0.577180000000    -0.0319235  
C391     C      0.801650000000     0.059780000000     0.546270000000    -0.0079911  
C392     C      0.851560000000     0.051560000000     0.517200000000    -0.0974725  
C393     C      0.730410000000     0.051770000000     0.564490000000    -0.0169601  
C394     C      0.661400000000     0.006810000000     0.581810000000    -0.110122   
C395     C      0.730490000000     0.027330000000     0.540520000000    -0.0321326  
C396     C      0.624880000000     0.001080000000     0.589430000000     0.0817088  
C397     C      0.651360000000     0.070240000000     0.591360000000     0.188592   
C398     C      0.765880000000     0.031300000000     0.531500000000    -0.0373429  
C399     C      0.836410000000     0.055160000000     0.546130000000     0.0521232  
C400     C      0.692810000000     0.045010000000     0.576550000000     0.0713312  
C401     C      0.358310000000     0.093780000000     0.489390000000    -0.141319   
C402     C      0.163360000000     0.109560000000     0.563840000000     0.0760058  
C403     C      0.150520000000     0.045740000000     0.580550000000     0.0697703  
C404     C      0.201140000000     0.120020000000     0.555190000000    -0.0960716  
C405     C      0.276580000000     0.093550000000     0.571350000000    -0.0380396  
C406     C      0.311650000000     0.098100000000     0.561360000000    -0.0313457  
C407     C      0.252870000000     0.102100000000     0.549550000000    -0.00676777 
C408     C      0.188230000000     0.055430000000     0.572730000000    -0.0964788  
C409     C      0.323940000000     0.111350000000     0.529270000000    -0.0163432  
C410     C      0.391600000000     0.123510000000     0.540660000000    -0.110828   
C411     C      0.300780000000     0.121050000000     0.507620000000    -0.0321326  
C412     C      0.418740000000     0.112040000000     0.536040000000     0.0877818  
C413     C      0.386870000000     0.083180000000     0.484780000000     0.186993   
C414     C      0.265550000000     0.116740000000     0.517810000000    -0.0381664  
C415     C      0.213650000000     0.092620000000     0.559340000000     0.0495941  
C416     C      0.359240000000     0.111630000000     0.518620000000     0.0719967  
C417     C      0.950380000000     0.662470000000     0.448490000000    -0.145317   
C418     C      0.013180000000     0.883630000000     0.549390000000     0.0746846  
C419     C      0.950250000000     0.863310000000     0.523880000000     0.0755156  
C420     C      0.011970000000     0.849920000000     0.538760000000    -0.0949995  
C421     C      0.999550000000     0.771150000000     0.520370000000    -0.0378574  
C422     C      0.001880000000     0.741470000000     0.505200000000    -0.0324205  
C423     C      0.980030000000     0.789280000000     0.504230000000    -0.00643322 
C424     C      0.947720000000     0.828900000000     0.513380000000    -0.0951257  
C425     C      0.984150000000     0.728720000000     0.473810000000    -0.0169866  
C426     C      0.020870000000     0.696890000000     0.456650000000    -0.110546   
C427     C      0.964090000000     0.746150000000     0.457780000000    -0.0325791  
C428     C      0.020790000000     0.663240000000     0.447570000000     0.0826062  
C429     C      0.951010000000     0.628860000000     0.439580000000     0.184986   
C430     C      0.962380000000     0.776390000000     0.472660000000    -0.0377958  
C431     C      0.979560000000     0.822640000000     0.519460000000     0.0493235  
C432     C      0.985250000000     0.695970000000     0.458790000000     0.0708546  
C433     C      0.020920000000     0.199430000000     0.611710000000    -0.141696   
C434     C      0.929590000000     0.358460000000     0.570230000000     0.0738148  
C435     C      0.946810000000     0.347980000000     0.518650000000     0.0760346  
C436     C      0.931760000000     0.326290000000     0.584010000000    -0.0940835  
C437     C      0.929740000000     0.235770000000     0.563730000000    -0.0379521  
C438     C      0.939010000000     0.207160000000     0.574890000000    -0.0325055  
C439     C      0.947560000000     0.272480000000     0.578920000000    -0.00659382 
C440     C      0.948250000000     0.315170000000     0.531370000000    -0.0952848  
C441     C      0.966920000000     0.214990000000     0.601050000000    -0.0155732  
C442     C      0.953930000000     0.146630000000     0.613910000000    -0.105833   
C443     C      0.983800000000     0.251250000000     0.616910000000    -0.0327168  
C444     C      0.967450000000     0.119970000000     0.617220000000     0.0769782  
C445     C      0.033810000000     0.172000000000     0.615200000000     0.18799    
C446     C      0.973920000000     0.279580000000     0.606140000000    -0.037879   
C447     C      0.941620000000     0.304540000000     0.564570000000     0.0492219  
C448     C      0.980690000000     0.186720000000     0.609600000000     0.0695074  
C449     C      0.048990000000     0.995160000000     0.723990000000    -0.145208   
C450     C      0.058880000000     0.056470000000     0.929180000000     0.0701369  
C451     C      0.109410000000     0.040460000000     0.935170000000     0.0723221  
C452     C      0.057030000000     0.052810000000     0.895160000000    -0.094955   
C453     C      0.114430000000     0.059330000000     0.826530000000    -0.0381798  
C454     C      0.111890000000     0.056870000000     0.792200000000    -0.0323767  
C455     C      0.080320000000     0.039240000000     0.844640000000    -0.00651776 
C456     C      0.108860000000     0.037300000000     0.901090000000    -0.0948597  
C457     C      0.075300000000     0.033620000000     0.775560000000    -0.0163434  
C458     C      0.088500000000     0.065550000000     0.719430000000    -0.107822   
C459     C      0.041410000000     0.012960000000     0.793830000000    -0.0324905  
C460     C      0.078840000000     0.063100000000     0.685680000000     0.0810863  
C461     C      0.040930000000     0.993320000000     0.689890000000     0.192152   
C462     C      0.043850000000     0.015960000000     0.827950000000    -0.0379473  
C463     C      0.082290000000     0.043310000000     0.880750000000     0.0485874  
C464     C      0.071610000000     0.031480000000     0.739180000000     0.0710029  
C465     C      0.998200000000     0.014510000000     0.389580000000    -0.140699   
C466     C      0.102730000000     0.060930000000     0.197380000000     0.0750785  
C467     C      0.047330000000     0.997760000000     0.187280000000     0.0780183  
C468     C      0.097200000000     0.055510000000     0.231150000000    -0.0959042  
C469     C      0.056170000000     0.047540000000     0.294320000000    -0.0375796  
C470     C      0.045480000000     0.043090000000     0.326960000000    -0.0328147  
C471     C      0.055940000000     0.016610000000     0.278350000000    -0.00691835 
C472     C      0.041200000000     0.991200000000     0.220920000000    -0.0946111  
C473     C      0.034760000000     0.007780000000     0.344460000000    -0.016444   
C474     C      0.039360000000     0.986740000000     0.402510000000    -0.108413   
C475     C      0.034800000000     0.976940000000     0.328570000000    -0.032273   
C476     C      0.030000000000     0.983280000000     0.435250000000     0.0745153  
C477     C      0.987440000000     0.008970000000     0.422590000000     0.180631   
C478     C      0.045050000000     0.981230000000     0.295820000000    -0.0375621  
C479     C      0.065370000000     0.020860000000     0.243170000000     0.0497138  
C480     C      0.024190000000     0.003280000000     0.379340000000     0.0680977  
C481     C      0.912260000000     0.907900000000     0.000630000000    -0.142367   
C482     C      0.720130000000     0.666990000000     0.994570000000     0.077828   
C483     C      0.722180000000     0.673680000000     0.052220000000     0.0738464  
C484     C      0.757790000000     0.699260000000     0.992570000000    -0.0971821  
C485     C      0.812540000000     0.786780000000     0.992970000000    -0.0381087  
C486     C      0.845830000000     0.823670000000     0.988470000000    -0.0314473  
C487     C      0.813110000000     0.760030000000     0.016830000000    -0.00614124 
C488     C      0.760260000000     0.706710000000     0.051060000000    -0.0948576  
C489     C      0.880610000000     0.834580000000     0.007550000000    -0.0168427  
C490     C      0.953100000000     0.878740000000     0.002340000000    -0.107185   
C491     C      0.881320000000     0.807750000000     0.031350000000    -0.0307287  
C492     C      0.986200000000     0.916320000000     0.002420000000     0.0862     
C493     C      0.946130000000     0.945500000000     0.000210000000     0.195189   
C494     C      0.847700000000     0.770910000000     0.036180000000    -0.0396457  
C495     C      0.777370000000     0.720900000000     0.020600000000     0.0495829  
C496     C      0.915730000000     0.874210000000     0.003330000000     0.0731569  
C497     C      0.240460000000     0.237460000000     0.037120000000    -0.143683   
C498     C      0.451580000000     0.397420000000     0.983940000000     0.0716818  
C499     C      0.491980000000     0.376730000000     0.013500000000     0.0705627  
C500     C      0.418500000000     0.360520000000     0.988130000000    -0.0927217  
C501     C      0.352540000000     0.277090000000     0.996320000000    -0.0387247  
C502     C      0.314790000000     0.252770000000     0.007540000000    -0.0323959  
C503     C      0.384790000000     0.296920000000     0.018690000000    -0.00533132 
C504     C      0.458970000000     0.339540000000     0.019240000000    -0.0917414  
C505     C      0.308420000000     0.247660000000     0.041390000000    -0.0155365  
C506     C      0.255500000000     0.201960000000     0.079510000000    -0.104855   
C507     C      0.341170000000     0.264230000000     0.063770000000    -0.0319026  
C508     C      0.216000000000     0.182250000000     0.087680000000     0.0816895  
C509     C      0.201380000000     0.218510000000     0.046610000000     0.185176   
C510     C      0.379090000000     0.288730000000     0.052490000000    -0.0378186  
C511     C      0.421490000000     0.331750000000     0.007460000000     0.0472776  
C512     C      0.267590000000     0.228360000000     0.052790000000     0.0702932  
C513     C      0.906300000000     0.054220000000     0.080880000000    -0.14298    
C514     C      0.705710000000     0.085050000000     0.112620000000     0.0771512  
C515     C      0.710600000000     0.073360000000     0.057210000000     0.0775895  
C516     C      0.742910000000     0.089290000000     0.120750000000    -0.092696   
C517     C      0.808020000000     0.066340000000     0.130860000000    -0.0374168  
C518     C      0.841530000000     0.062280000000     0.134080000000    -0.0320097  
C519     C      0.802740000000     0.087250000000     0.103900000000    -0.00591454 
C520     C      0.747730000000     0.078010000000     0.064300000000    -0.0944329  
C521     C      0.870160000000     0.078940000000     0.110330000000    -0.0161333  
C522     C      0.929280000000     0.076810000000     0.135840000000    -0.107927   
C523     C      0.866170000000     0.102120000000     0.084800000000    -0.0327408  
C524     C      0.960700000000     0.070230000000     0.132630000000     0.0787931  
C525     C      0.938640000000     0.049140000000     0.077600000000     0.190605   
C526     C      0.833010000000     0.106330000000     0.081690000000    -0.0379194  
C527     C      0.764260000000     0.085440000000     0.096430000000     0.0493962  
C528     C      0.901940000000     0.069180000000     0.109580000000     0.0708094  
C529     C      0.463940000000     0.166350000000     0.021030000000    -0.142558   
C530     C      0.221510000000     0.097020000000     0.066980000000     0.0722669  
C531     C      0.222050000000     0.134530000000     0.019500000000     0.0762103  
C532     C      0.261150000000     0.109230000000     0.063830000000    -0.0957779  
C533     C      0.327220000000     0.129900000000     0.000280000000    -0.0377349  
C534     C      0.362180000000     0.130300000000     0.995670000000    -0.0323     
C535     C      0.320800000000     0.140770000000     0.030520000000    -0.00618875 
C536     C      0.261360000000     0.146350000000     0.015090000000    -0.0953478  
C537     C      0.391620000000     0.142370000000     0.020950000000    -0.0171244  
C538     C      0.417450000000     0.097640000000     0.014290000000    -0.108766   
C539     C      0.386390000000     0.155810000000     0.050380000000    -0.0322749  
C540     C      0.448450000000     0.090280000000     0.015740000000     0.0769555  
C541     C      0.495130000000     0.158640000000     0.020200000000     0.18351    
C542     C      0.351020000000     0.154650000000     0.055270000000    -0.0379182  
C543     C      0.281120000000     0.133250000000     0.037140000000     0.0497368  
C544     C      0.424950000000     0.135660000000     0.018430000000     0.0701655  
C545     C      0.005580000000     0.856720000000     0.067290000000    -0.142018   
C546     C      0.060490000000     0.693420000000     0.967190000000     0.0761983  
C547     C      0.073240000000     0.685910000000     0.023910000000     0.0839435  
C548     C      0.049760000000     0.721230000000     0.974550000000    -0.0950518  
C549     C      0.016240000000     0.770190000000     0.007510000000    -0.0385575  
C550     C      0.012880000000     0.800760000000     0.020420000000    -0.0321107  
C551     C      0.048740000000     0.765780000000     0.017010000000    -0.00724238 
C552     C      0.061800000000     0.712090000000     0.032030000000    -0.102395   
C553     C      0.042070000000     0.827260000000     0.042830000000    -0.0165935  
C554     C      0.075080000000     0.896730000000     0.060570000000    -0.109313   
C555     C      0.074450000000     0.822580000000     0.051880000000    -0.0320313  
C556     C      0.074610000000     0.927890000000     0.074260000000     0.080597   
C557     C      0.005830000000     0.888820000000     0.081580000000     0.185499   
C558     C      0.077990000000     0.792790000000     0.038830000000    -0.0378504  
C559     C      0.051880000000     0.731730000000     0.007370000000     0.051476   
C560     C      0.040390000000     0.860720000000     0.056370000000     0.0694077  
C561     C      0.064360000000     0.395110000000     0.054170000000    -0.145037   
C562     C      0.014840000000     0.157840000000     0.076830000000     0.0786293  
C563     C      0.019580000000     0.163840000000     0.018940000000     0.0747835  
C564     C      0.004910000000     0.186860000000     0.076930000000    -0.0984483  
C565     C      0.035580000000     0.273140000000     0.073060000000    -0.0380164  
C566     C      0.040840000000     0.310720000000     0.074310000000    -0.0313606  
C567     C      0.008910000000     0.246150000000     0.049710000000    -0.00655196 
C568     C      0.010580000000     0.193990000000     0.018200000000    -0.0966497  
C569     C      0.019400000000     0.322030000000     0.052330000000    -0.0176784  
C570     C      0.994330000000     0.368600000000     0.050500000000    -0.110554   
C571     C      0.992230000000     0.294890000000     0.029270000000    -0.0306959  
C572     C      0.000880000000     0.406530000000     0.046160000000     0.0844687  
C573     C      0.070200000000     0.433310000000     0.050330000000     0.195653   
C574     C      0.987250000000     0.257290000000     0.027770000000    -0.0391363  
C575     C      0.005900000000     0.207420000000     0.047850000000     0.0504095  
C576     C      0.026170000000     0.362440000000     0.052590000000     0.0736053  
Co1      Co     0.083490000000     0.101280000000     0.102950000000     1.11593    
Co2      Co     0.092540000000     0.025330000000     0.046090000000     0.910021   
Co3      Co     0.094360000000     0.107860000000     0.025560000000     1.1082     
Co4      Co     0.034920000000     0.015020000000     0.075660000000     1.12986    
Co5      Co     0.042890000000     0.005710000000     0.542140000000     1.08718    
Co6      Co     0.967770000000     0.006950000000     0.604370000000     1.04002    
Co7      Co     0.953710000000     0.980960000000     0.528160000000     1.08373    
Co8      Co     0.032160000000     0.067520000000     0.577860000000     1.10089    
Co9      Co     0.064660000000     0.512140000000     0.970880000000     1.13927    
Co10     Co     0.079510000000     0.591430000000     0.025580000000     1.10629    
Co11     Co     0.008130000000     0.511920000000     0.991810000000     0.903909   
Co12     Co     0.106620000000     0.604330000000     0.952140000000     1.09244    
Co13     Co     0.976800000000     0.455390000000     0.460670000000     1.00879    
Co14     Co     0.970920000000     0.550680000000     0.500910000000     1.0739     
Co15     Co     0.952790000000     0.467420000000     0.513910000000     1.06004    
Co16     Co     0.031100000000     0.552410000000     0.451760000000     1.12229    
Co17     Co     0.522720000000     0.060810000000     0.077480000000     1.00428    
Co18     Co     0.591440000000     0.048190000000     0.017040000000     1.10383    
Co19     Co     0.595910000000     0.126780000000     0.037710000000     1.06781    
Co20     Co     0.576280000000     0.036810000000     0.092020000000     1.08302    
Co21     Co     0.455960000000     0.033860000000     0.575270000000     1.03618    
Co22     Co     0.549110000000     0.035280000000     0.528210000000     1.11199    
Co23     Co     0.484200000000     0.054040000000     0.516350000000     1.03308    
Co24     Co     0.496050000000     0.978290000000     0.583930000000     1.09933    
Co25     Co     0.570370000000     0.507700000000     0.009900000000     1.1125     
Co26     Co     0.588920000000     0.600070000000     0.048540000000     1.09671    
Co27     Co     0.517510000000     0.508510000000     0.036360000000     0.908814   
Co28     Co     0.593360000000     0.588930000000     0.973600000000     1.1112     
Co29     Co     0.482560000000     0.471170000000     0.483750000000     1.0939     
Co30     Co     0.496880000000     0.550550000000     0.555430000000     0.88297    
Co31     Co     0.461510000000     0.481730000000     0.551120000000     1.10835    
Co32     Co     0.543370000000     0.562710000000     0.502920000000     1.07956    
H1       H      0.533710000000     0.456390000000     0.919220000000     0.0297193  
H2       H      0.534710000000     0.518060000000     0.645080000000     0.0277775  
H3       H      0.436270000000     0.471670000000     0.810140000000     0.0369917  
H4       H      0.533960000000     0.459810000000     0.748370000000     0.0353981  
H5       H      0.540540000000     0.507960000000     0.703690000000     0.0557198  
H6       H      0.542060000000     0.464970000000     0.808270000000     0.0381419  
H7       H      0.415910000000     0.427230000000     0.704530000000     0.0656798  
H8       H      0.511780000000     0.433290000000     0.863290000000     0.0539195  
H9       H      0.487560000000     0.527640000000     0.843400000000     0.0522582  
H10      H      0.428760000000     0.467730000000     0.750610000000     0.0353049  
H11      H      0.509680000000     0.549970000000     0.898980000000     0.0234701  
H12      H      0.376640000000     0.423350000000     0.658120000000     0.0886686  
H13      H      0.394980000000     0.453820000000     0.623240000000     0.113074   
H14      H      0.607240000000     0.579330000000     0.140070000000     0.0233685  
H15      H      0.458760000000     0.510980000000     0.394840000000     0.0269082  
H16      H      0.583050000000     0.611470000000     0.239400000000     0.0361371  
H17      H      0.478920000000     0.490950000000     0.292920000000     0.0355641  
H18      H      0.462590000000     0.520780000000     0.336270000000     0.0559653  
H19      H      0.484240000000     0.492660000000     0.233780000000     0.03739    
H20      H      0.588110000000     0.572100000000     0.345790000000     0.0646377  
H21      H      0.601650000000     0.581290000000     0.198720000000     0.0516082  
H22      H      0.475260000000     0.523200000000     0.183800000000     0.0516021  
H23      H      0.577870000000     0.609550000000     0.298950000000     0.0351977  
H24      H      0.481850000000     0.520850000000     0.125500000000     0.0227441  
H25      H      0.617660000000     0.571130000000     0.396900000000     0.0859015  
H26      H      0.591030000000     0.545840000000     0.431360000000     0.108878   
H27      H      0.449180000000     0.876470000000     0.534980000000     0.0267095  
H28      H      0.541780000000     0.655100000000     0.454430000000     0.0199665  
H29      H      0.437550000000     0.780280000000     0.468740000000     0.0369533  
H30      H      0.557080000000     0.769050000000     0.486880000000     0.0360407  
H31      H      0.542040000000     0.716450000000     0.445620000000     0.0546569  
H32      H      0.561600000000     0.831960000000     0.495310000000     0.0368529  
H33      H      0.437710000000     0.669980000000     0.500560000000     0.0664063  
H34      H      0.444720000000     0.817730000000     0.515130000000     0.0521518  
H35      H      0.558640000000     0.888340000000     0.473920000000     0.0506413  
H36      H      0.433010000000     0.717120000000     0.461060000000     0.0352644  
H37      H      0.562650000000     0.946910000000     0.495140000000     0.0194527  
H38      H      0.405230000000     0.602450000000     0.515980000000     0.0931179  
H39      H      0.423370000000     0.571210000000     0.506880000000     0.111643   
H40      H      0.505990000000     0.388420000000     0.509750000000     0.0202419  
H41      H      0.503270000000     0.132980000000     0.628360000000     0.023187   
H42      H      0.603570000000     0.359510000000     0.573750000000     0.038406   
H43      H      0.492030000000     0.238170000000     0.619390000000     0.0351148  
H44      H      0.517230000000     0.198170000000     0.640750000000     0.0544349  
H45      H      0.488640000000     0.298160000000     0.613820000000     0.0401385  
H46      H      0.581170000000     0.242820000000     0.552350000000     0.0660158  
H47      H      0.527690000000     0.343850000000     0.531000000000     0.0544908  
H48      H      0.545290000000     0.391410000000     0.627480000000     0.0542787  
H49      H      0.608520000000     0.300240000000     0.581010000000     0.0342658  
H50      H      0.524620000000     0.437390000000     0.605110000000     0.0276505  
H51      H      0.598290000000     0.201830000000     0.526200000000     0.093673   
H52      H      0.583280000000     0.153640000000     0.541680000000     0.121496   
H53      H      0.440060000000     0.029920000000     0.669270000000     0.0199667  
H54      H      0.514090000000     0.016840000000     0.941140000000     0.0283846  
H55      H      0.449720000000     0.015190000000     0.780800000000     0.0368992  
H56      H      0.581030000000     0.114320000000     0.827360000000     0.036172   
H57      H      0.499770000000     0.012450000000     0.883140000000     0.055522   
H58      H      0.571730000000     0.102410000000     0.768090000000     0.037392   
H59      H      0.553990000000     0.137960000000     0.875040000000     0.0645026  
H60      H      0.449810000000     0.048040000000     0.726580000000     0.0517868  
H61      H      0.557960000000     0.045370000000     0.732500000000     0.0522547  
H62      H      0.459050000000     0.027120000000     0.839780000000     0.0359296  
H63      H      0.547300000000     0.027080000000     0.675060000000     0.0241121  
H64      H      0.571430000000     0.174130000000     0.923650000000     0.0859532  
H65      H      0.562250000000     0.152270000000     0.963110000000     0.102409   
H66      H      0.528150000000     0.981670000000     0.445320000000     0.0218371  
H67      H      0.541350000000     0.968250000000     0.176500000000     0.0291468  
H68      H      0.501970000000     0.938370000000     0.340300000000     0.0366799  
H69      H      0.471590000000     0.027090000000     0.270790000000     0.0347401  
H70      H      0.513570000000     0.948290000000     0.229720000000     0.054353   
H71      H      0.455040000000     0.016510000000     0.328050000000     0.0375979  
H72      H      0.524630000000     0.061880000000     0.239370000000     0.0632318  
H73      H      0.526740000000     0.972530000000     0.387700000000     0.0521226  
H74      H      0.420880000000     0.979670000000     0.374620000000     0.0516507  
H75      H      0.522640000000     0.952430000000     0.284540000000     0.0354188  
H76      H      0.424560000000     0.990840000000     0.433510000000     0.0256812  
H77      H      0.554500000000     0.109520000000     0.197610000000     0.0867764  
H78      H      0.573560000000     0.100940000000     0.162820000000     0.0981494  
H79      H      0.522970000000     0.936580000000     0.997870000000     0.0260889  
H80      H      0.591630000000     0.690080000000     0.047280000000     0.0135154  
H81      H      0.542990000000     0.838430000000     0.972430000000     0.0371311  
H82      H      0.507360000000     0.736120000000     0.060280000000     0.0333146  
H83      H      0.567960000000     0.733760000000     0.053540000000     0.055336   
H84      H      0.507990000000     0.796770000000     0.071310000000     0.0363876  
H85      H      0.508980000000     0.704080000000     0.958130000000     0.0644871  
H86      H      0.505120000000     0.869710000000     0.986590000000     0.0521343  
H87      H      0.564580000000     0.865330000000     0.077960000000     0.0524679  
H88      H      0.542740000000     0.778060000000     0.961550000000     0.0351177  
H89      H      0.581830000000     0.932470000000     0.088690000000     0.0304129  
H90      H      0.517290000000     0.661800000000     0.925450000000     0.0865752  
H91      H      0.550040000000     0.644780000000     0.935840000000     0.105038   
H92      H      0.514130000000     0.421650000000     0.104800000000     0.0235756  
H93      H      0.645740000000     0.212950000000     0.096340000000     0.0209229  
H94      H      0.523860000000     0.316890000000     0.094450000000     0.0354991  
H95      H      0.646710000000     0.322560000000     0.139020000000     0.0352221  
H96      H      0.647920000000     0.274550000000     0.102950000000     0.0539609  
H97      H      0.643220000000     0.382880000000     0.135230000000     0.0368117  
H98      H      0.531980000000     0.212280000000     0.140040000000     0.0637912  
H99      H      0.520760000000     0.365870000000     0.123550000000     0.0508176  
H100     H      0.641460000000     0.428450000000     0.095270000000     0.0533976  
H101     H      0.527250000000     0.257120000000     0.098680000000     0.0346469  
H102     H      0.634050000000     0.484100000000     0.077830000000     0.0304094  
H103     H      0.501930000000     0.144610000000     0.149420000000     0.0847139  
H104     H      0.523580000000     0.116510000000     0.141900000000     0.102388   
H105     H      0.635250000000     0.134060000000     0.511200000000     0.0194473  
H106     H      0.841440000000     0.436850000000     0.481090000000     0.0306388  
H107     H      0.672800000000     0.241290000000     0.396380000000     0.0377914  
H108     H      0.744270000000     0.326300000000     0.491740000000     0.0370416  
H109     H      0.772830000000     0.390180000000     0.473030000000     0.0559567  
H110     H      0.687230000000     0.262660000000     0.500460000000     0.03615    
H111     H      0.798570000000     0.340120000000     0.393610000000     0.0645416  
H112     H      0.685660000000     0.197200000000     0.491160000000     0.0528771  
H113     H      0.599900000000     0.203550000000     0.423880000000     0.0537332  
H114     H      0.729810000000     0.307070000000     0.386850000000     0.0344838  
H115     H      0.549400000000     0.139160000000     0.444550000000     0.0323643  
H116     H      0.861480000000     0.377260000000     0.371740000000     0.0877034  
H117     H      0.899200000000     0.421690000000     0.388550000000     0.113118   
H118     H      0.132010000000     0.614030000000     0.503040000000     0.0234016  
H119     H      0.354870000000     0.941060000000     0.529310000000     0.0264608  
H120     H      0.216590000000     0.746470000000     0.494870000000     0.0373178  
H121     H      0.243660000000     0.805510000000     0.604990000000     0.0355647  
H122     H      0.292990000000     0.880590000000     0.520400000000     0.0564068  
H123     H      0.182990000000     0.742540000000     0.594170000000     0.0373391  
H124     H      0.318670000000     0.829100000000     0.606650000000     0.06505    
H125     H      0.190790000000     0.674920000000     0.518650000000     0.0521238  
H126     H      0.118680000000     0.717300000000     0.554010000000     0.0513615  
H127     H      0.276720000000     0.809430000000     0.505500000000     0.0365673  
H128     H      0.059900000000     0.655970000000     0.537490000000     0.0196597  
H129     H      0.374440000000     0.869000000000     0.640490000000     0.0863463  
H130     H      0.405600000000     0.919740000000     0.633140000000     0.104922   
H131     H      0.607980000000     0.526000000000     0.563750000000     0.0284434  
H132     H      0.856560000000     0.512620000000     0.488970000000     0.0268442  
H133     H      0.654640000000     0.408290000000     0.526800000000     0.03492    
H134     H      0.776630000000     0.520800000000     0.574480000000     0.0364045  
H135     H      0.790780000000     0.496280000000     0.498860000000     0.0566248  
H136     H      0.716680000000     0.523680000000     0.570160000000     0.0365309  
H137     H      0.797880000000     0.446510000000     0.593030000000     0.0662092  
H138     H      0.654520000000     0.506060000000     0.582620000000     0.0520198  
H139     H      0.627590000000     0.439270000000     0.494180000000     0.050543   
H140     H      0.716340000000     0.407210000000     0.529420000000     0.0350408  
H141     H      0.578670000000     0.457400000000     0.477460000000     0.0180891  
H142     H      0.858130000000     0.452140000000     0.612020000000     0.0899094  
H143     H      0.901970000000     0.479360000000     0.591290000000     0.116409   
H144     H      0.065260000000     0.452450000000     0.517310000000     0.0284788  
H145     H      0.355750000000     0.469310000000     0.518530000000     0.0309886  
H146     H      0.175650000000     0.447770000000     0.522400000000     0.0371131  
H147     H      0.297870000000     0.576890000000     0.537910000000     0.0343147  
H148     H      0.295570000000     0.469510000000     0.509610000000     0.0568453  
H149     H      0.235730000000     0.574850000000     0.522980000000     0.0364518  
H150     H      0.332960000000     0.557860000000     0.582690000000     0.0648395  
H151     H      0.126270000000     0.458850000000     0.539980000000     0.0531695  
H152     H      0.190490000000     0.559110000000     0.475620000000     0.0521508  
H153     H      0.236820000000     0.449890000000     0.538880000000     0.0357897  
H154     H      0.128660000000     0.552810000000     0.454340000000     0.0194955  
H155     H      0.391840000000     0.576620000000     0.613680000000     0.0896191  
H156     H      0.419950000000     0.553860000000     0.610940000000     0.116637   
H157     H      0.020960000000     0.476890000000     0.596440000000     0.0287311  
H158     H      0.042910000000     0.592600000000     0.863980000000     0.0254594  
H159     H      0.075840000000     0.519560000000     0.701600000000     0.0371973  
H160     H      0.985290000000     0.544220000000     0.761740000000     0.0349017  
H161     H      0.030820000000     0.585880000000     0.805360000000     0.054794   
H162     H      0.979700000000     0.542410000000     0.701870000000     0.0367928  
H163     H      0.047880000000     0.486540000000     0.809670000000     0.0650316  
H164     H      0.032130000000     0.480410000000     0.655830000000     0.0524272  
H165     H      0.016460000000     0.581070000000     0.654830000000     0.0515006  
H166     H      0.081550000000     0.521520000000     0.761440000000     0.0353682  
H167     H      0.004980000000     0.576470000000     0.595830000000     0.0212371  
H168     H      0.071380000000     0.471220000000     0.858230000000     0.0902614  
H169     H      0.088060000000     0.500890000000     0.892740000000     0.116668   
H170     H      0.990670000000     0.552650000000     0.356550000000     0.0250536  
H171     H      0.954100000000     0.490510000000     0.080320000000     0.0222263  
H172     H      0.025060000000     0.472570000000     0.261290000000     0.0377174  
H173     H      0.943010000000     0.512740000000     0.191340000000     0.0357755  
H174     H      0.936980000000     0.472860000000     0.137430000000     0.0554081  
H175     H      0.936490000000     0.506470000000     0.251040000000     0.0370494  
H176     H      0.058330000000     0.546030000000     0.168420000000     0.0653337  
H177     H      0.983760000000     0.547110000000     0.297260000000     0.0524484  
H178     H      0.978880000000     0.435380000000     0.306850000000     0.0519554  
H179     H      0.031530000000     0.478920000000     0.201820000000     0.0371788  
H180     H      0.985610000000     0.441630000000     0.366290000000     0.0215773  
H181     H      0.102600000000     0.588840000000     0.130060000000     0.0864516  
H182     H      0.088160000000     0.593580000000     0.089150000000     0.0751362  
H183     H      0.713230000000     0.185830000000     0.046790000000     0.0270128  
H184     H      0.013700000000     0.391190000000     0.959060000000     0.0305504  
H185     H      0.841230000000     0.241360000000     0.015030000000     0.0372548  
H186     H      0.847060000000     0.300600000000     0.903860000000     0.034784   
H187     H      0.957100000000     0.325640000000     0.961490000000     0.053343   
H188     H      0.785460000000     0.243480000000     0.920840000000     0.0369916  
H189     H      0.883840000000     0.369100000000     0.917880000000     0.0644839  
H190     H      0.777580000000     0.233860000000     0.028310000000     0.0523554  
H191     H      0.751000000000     0.171580000000     0.937630000000     0.0511583  
H192     H      0.902360000000     0.298840000000     0.998490000000     0.0338277  
H193     H      0.686220000000     0.123490000000     0.957070000000     0.0215383  
H194     H      0.915000000000     0.434190000000     0.896080000000     0.0883522  
H195     H      0.966630000000     0.466350000000     0.899480000000     0.11254    
H196     H      0.185370000000     0.640070000000     0.076790000000     0.0196214  
H197     H      0.495500000000     0.919860000000     0.092210000000     0.0290891  
H198     H      0.324080000000     0.732430000000     0.096700000000     0.0365646  
H199     H      0.352130000000     0.835910000000     0.010880000000     0.0366826  
H200     H      0.445300000000     0.851780000000     0.084610000000     0.0566584  
H201     H      0.297500000000     0.769920000000     0.001960000000     0.0378719  
H202     H      0.363160000000     0.887730000000     0.049190000000     0.0654879  
H203     H      0.250340000000     0.695600000000     0.091970000000     0.0512933  
H204     H      0.283230000000     0.704630000000     0.991720000000     0.0521773  
H205     H      0.378840000000     0.799780000000     0.106060000000     0.0354413  
H206     H      0.218070000000     0.651630000000     0.977330000000     0.020423   
H207     H      0.380860000000     0.953470000000     0.052470000000     0.0872291  
H208     H      0.425230000000     0.989290000000     0.071320000000     0.101959   
H209     H      0.985040000000     0.616560000000     0.027990000000     0.0220609  
H210     H      0.678380000000     0.575810000000     0.924190000000     0.0185097  
H211     H      0.892500000000     0.653360000000     0.997450000000     0.0356689  
H212     H      0.783510000000     0.547710000000     0.930880000000     0.0372232  
H213     H      0.746680000000     0.594750000000     0.916500000000     0.0555451  
H214     H      0.848170000000     0.554300000000     0.932800000000     0.0370883  
H215     H      0.762150000000     0.575610000000     0.019460000000     0.0674867  
H216     H      0.929560000000     0.627070000000     0.019340000000     0.0511446  
H217     H      0.912210000000     0.585020000000     0.920300000000     0.0513634  
H218     H      0.826450000000     0.644440000000     0.996950000000     0.0367011  
H219     H      0.965470000000     0.572120000000     0.930940000000     0.0292985  
H220     H      0.711790000000     0.561170000000     0.054200000000     0.0923117  
H221     H      0.667970000000     0.560030000000     0.041130000000     0.127042   
H222     H      0.206180000000     0.611780000000     0.923010000000     0.0191849  
H223     H      0.458560000000     0.547210000000     0.970550000000     0.0322501  
H224     H      0.291800000000     0.573270000000     0.024050000000     0.0385336  
H225     H      0.383990000000     0.605560000000     0.935150000000     0.0344864  
H226     H      0.405000000000     0.557570000000     0.953960000000     0.0553882  
H227     H      0.318550000000     0.596900000000     0.921680000000     0.036922   
H228     H      0.429240000000     0.627760000000     0.038830000000     0.063905   
H229     H      0.273750000000     0.625420000000     0.931770000000     0.0507866  
H230     H      0.232120000000     0.520570000000     0.992460000000     0.0526285  
H231     H      0.356740000000     0.581620000000     0.037470000000     0.0357524  
H232     H      0.165490000000     0.507700000000     0.983260000000     0.0326817  
H233     H      0.477950000000     0.634080000000     0.077710000000     0.0851903  
H234     H      0.501760000000     0.606840000000     0.077780000000     0.105652   
H235     H      0.856370000000     0.881630000000     0.544320000000     0.0184874  
H236     H      0.572940000000     0.624380000000     0.633320000000     0.024841   
H237     H      0.795290000000     0.751230000000     0.593290000000     0.0378092  
H238     H      0.688590000000     0.757500000000     0.645600000000     0.0367994  
H239     H      0.638510000000     0.673470000000     0.655380000000     0.0556576  
H240     H      0.755490000000     0.815100000000     0.646840000000     0.0382687  
H241     H      0.676430000000     0.708800000000     0.556950000000     0.0658869  
H242     H      0.799500000000     0.819660000000     0.559510000000     0.0524895  
H243     H      0.841360000000     0.838730000000     0.660920000000     0.0529195  
H244     H      0.729010000000     0.693760000000     0.592510000000     0.0364639  
H245     H      0.899170000000     0.900670000000     0.644840000000     0.0235617  
H246     H      0.629170000000     0.685780000000     0.513270000000     0.0846077  
H247     H      0.578570000000     0.653920000000     0.519130000000     0.102246   
H248     H      0.364370000000     0.408280000000     0.448070000000     0.0256458  
H249     H      0.054720000000     0.151090000000     0.517320000000     0.031505   
H250     H      0.275570000000     0.256540000000     0.503040000000     0.0386485  
H251     H      0.158490000000     0.264550000000     0.461780000000     0.0355144  
H252     H      0.111360000000     0.214180000000     0.504250000000     0.0578068  
H253     H      0.223580000000     0.324930000000     0.465290000000     0.0376742  
H254     H      0.159930000000     0.155840000000     0.454990000000     0.0654799  
H255     H      0.297710000000     0.352420000000     0.439220000000     0.0525911  
H256     H      0.298310000000     0.318820000000     0.541290000000     0.0544907  
H257     H      0.211400000000     0.196790000000     0.499380000000     0.0349155  
H258     H      0.363930000000     0.374670000000     0.549570000000     0.0337438  
H259     H      0.120690000000     0.087450000000     0.447160000000     0.0879873  
H260     H      0.073380000000     0.058880000000     0.462920000000     0.108115   
H261     H      0.892510000000     0.038930000000     0.496650000000     0.0216417  
H262     H      0.600440000000     0.971060000000     0.590480000000     0.0218462  
H263     H      0.765040000000     0.010190000000     0.514960000000     0.0372937  
H264     H      0.767640000000     0.101650000000     0.595670000000     0.0345803  
H265     H      0.664510000000     0.981410000000     0.578710000000     0.0558211  
H266     H      0.829160000000     0.108500000000     0.579780000000     0.0362218  
H267     H      0.712360000000     0.106690000000     0.580730000000     0.0653333  
H268     H      0.840030000000     0.055480000000     0.493370000000     0.0522679  
H269     H      0.839890000000     0.050920000000     0.599210000000     0.0530403  
H270     H      0.703120000000     0.004260000000     0.529590000000     0.0347832  
H271     H      0.888970000000     0.032620000000     0.601640000000     0.019098   
H272     H      0.672570000000     0.130090000000     0.599510000000     0.0885     
H273     H      0.622740000000     0.098170000000     0.609170000000     0.108845   
H274     H      0.131290000000     0.016320000000     0.590120000000     0.0205621  
H275     H      0.441940000000     0.119430000000     0.555020000000     0.0181     
H276     H      0.247480000000     0.123300000000     0.500530000000     0.0362757  
H277     H      0.328370000000     0.089620000000     0.578490000000     0.0360443  
H278     H      0.394220000000     0.138800000000     0.562880000000     0.0562261  
H279     H      0.267490000000     0.082400000000     0.595970000000     0.0379442  
H280     H      0.333670000000     0.084900000000     0.471700000000     0.0647294  
H281     H      0.197020000000     0.033490000000     0.576260000000     0.0520734  
H282     H      0.220330000000     0.149210000000     0.545250000000     0.0520444  
H283     H      0.309570000000     0.131310000000     0.482790000000     0.0351492  
H284     H      0.154330000000     0.131290000000     0.559740000000     0.0309967  
H285     H      0.360840000000     0.056910000000     0.439480000000     0.0880798  
H286     H      0.401900000000     0.052360000000     0.452970000000     0.111551   
H287     H      0.925620000000     0.867750000000     0.517470000000     0.0201323  
H288     H      0.048960000000     0.664510000000     0.448490000000     0.0220745  
H289     H      0.947840000000     0.790110000000     0.459060000000     0.036466   
H290     H      0.016900000000     0.727880000000     0.518290000000     0.0352477  
H291     H      0.048540000000     0.722880000000     0.463500000000     0.0562319  
H292     H      0.012850000000     0.779590000000     0.544880000000     0.0361445  
H293     H      0.922630000000     0.661940000000     0.448530000000     0.0650582  
H294     H      0.921320000000     0.807940000000     0.499790000000     0.0507381  
H295     H      0.037360000000     0.846580000000     0.544250000000     0.0511585  
H296     H      0.950230000000     0.736780000000     0.433530000000     0.0351734  
H297     H      0.039590000000     0.904690000000     0.563010000000     0.0233598  
H298     H      0.890460000000     0.597660000000     0.426660000000     0.0876726  
H299     H      0.916010000000     0.573150000000     0.417970000000     0.108488   
H300     H      0.953320000000     0.355850000000     0.493040000000     0.0209463  
H301     H      0.945530000000     0.089130000000     0.619090000000     0.0206269  
H302     H      0.988280000000     0.307740000000     0.618140000000     0.0377315  
H303     H      0.925730000000     0.179590000000     0.562060000000     0.0378672  
H304     H      0.922580000000     0.135750000000     0.613560000000     0.0543863  
H305     H      0.909290000000     0.229560000000     0.542720000000     0.0380782  
H306     H      0.042330000000     0.230590000000     0.610030000000     0.065432   
H307     H      0.956090000000     0.299160000000     0.515580000000     0.0531263  
H308     H      0.926240000000     0.318770000000     0.609770000000     0.0524795  
H309     H      0.005260000000     0.257990000000     0.637200000000     0.0352874  
H310     H      0.922600000000     0.375050000000     0.586170000000     0.029851   
H311     H      0.093360000000     0.215950000000     0.620310000000     0.089287   
H312     H      0.084290000000     0.167570000000     0.628050000000     0.114682   
H313     H      0.130260000000     0.035440000000     0.950180000000     0.0236426  
H314     H      0.090000000000     0.090520000000     0.671730000000     0.0254048  
H315     H      0.017160000000     0.000030000000     0.841350000000     0.0377143  
H316     H      0.138450000000     0.073010000000     0.778690000000     0.0357458  
H317     H      0.106820000000     0.094190000000     0.730260000000     0.0558072  
H318     H      0.142870000000     0.077640000000     0.838850000000     0.037178   
H319     H      0.037860000000     0.968250000000     0.738650000000     0.0662901  
H320     H      0.128660000000     0.029640000000     0.890780000000     0.0521823  
H321     H      0.036210000000     0.057860000000     0.880180000000     0.0517221  
H322     H      0.012770000000     0.995130000000     0.781630000000     0.0368267  
H323     H      0.038900000000     0.064070000000     0.939310000000     0.0229986  
H324     H      0.013690000000     0.931700000000     0.689820000000     0.0905173  
H325     H      0.021100000000     0.954040000000     0.650230000000     0.120598   
H326     H      0.026860000000     0.974760000000     0.170750000000     0.0279011  
H327     H      0.043900000000     0.971320000000     0.452130000000     0.0207718  
H328     H      0.044650000000     0.956920000000     0.284200000000     0.0373298  
H329     H      0.046000000000     0.067440000000     0.338630000000     0.0359907  
H330     H      0.059430000000     0.977440000000     0.395610000000     0.0541612  
H331     H      0.063900000000     0.074980000000     0.281360000000     0.0371009  
H332     H      0.984650000000     0.025670000000     0.371510000000     0.0644402  
H333     H      0.016410000000     0.963850000000     0.229220000000     0.0531833  
H334     H      0.117130000000     0.078770000000     0.247650000000     0.0519652  
H335     H      0.026410000000     0.949260000000     0.341360000000     0.0354173  
H336     H      0.126870000000     0.088770000000     0.188990000000     0.0227805  
H337     H      0.945410000000     0.026080000000     0.411810000000     0.0873902  
H338     H      0.942030000000     0.004700000000     0.451040000000     0.101984   
H339     H      0.708520000000     0.664850000000     0.075710000000     0.0213163  
H340     H      0.014650000000     0.918160000000     0.003830000000     0.0245292  
H341     H      0.848890000000     0.750760000000     0.054640000000     0.0360163  
H342     H      0.844440000000     0.843530000000     0.969830000000     0.0348416  
H343     H      0.956880000000     0.853360000000     0.002790000000     0.0550797  
H344     H      0.786090000000     0.779240000000     0.977880000000     0.0384595  
H345     H      0.883410000000     0.905090000000     0.999450000000     0.0667568  
H346     H      0.774950000000     0.722490000000     0.073380000000     0.0519186  
H347     H      0.770690000000     0.708480000000     0.968790000000     0.0527386  
H348     H      0.907690000000     0.815480000000     0.046540000000     0.0321461  
H349     H      0.705390000000     0.652190000000     0.971840000000     0.0216587  
H350     H      0.913810000000     0.974350000000     0.991680000000     0.0881907  
H351     H      0.965510000000     0.005400000000     0.989820000000     0.110906   
H352     H      0.520180000000     0.382800000000     0.024680000000     0.0301641  
H353     H      0.207390000000     0.159910000000     0.107000000000     0.0275421  
H354     H      0.403370000000     0.303820000000     0.070320000000     0.0372027  
H355     H      0.290240000000     0.239450000000     0.989670000000     0.0339174  
H356     H      0.275840000000     0.194830000000     0.092830000000     0.0560666  
H357     H      0.356140000000     0.282490000000     0.970120000000     0.0370608  
H358     H      0.249980000000     0.260250000000     0.018140000000     0.0645745  
H359     H      0.462430000000     0.317870000000     0.034120000000     0.0504168  
H360     H      0.390180000000     0.355790000000     0.978510000000     0.0522209  
H361     H      0.337240000000     0.260670000000     0.089990000000     0.034907   
H362     H      0.447540000000     0.419740000000     0.970620000000     0.0274887  
H363     H      0.187640000000     0.254750000000     0.015970000000     0.0860161  
H364     H      0.150600000000     0.224090000000     0.043210000000     0.104531   
H365     H      0.699090000000     0.067070000000     0.031970000000     0.0221772  
H366     H      0.981280000000     0.076450000000     0.153600000000     0.0188035  
H367     H      0.830350000000     0.123350000000     0.061050000000     0.0373446  
H368     H      0.843910000000     0.044260000000     0.153990000000     0.0367624  
H369     H      0.926930000000     0.088630000000     0.158440000000     0.0548825  
H370     H      0.785220000000     0.051190000000     0.148350000000     0.0386764  
H371     H      0.885710000000     0.048840000000     0.060060000000     0.0662859  
H372     H      0.762830000000     0.074430000000     0.044700000000     0.0524887  
H373     H      0.754730000000     0.095320000000     0.145880000000     0.0532438  
H374     H      0.888140000000     0.115860000000     0.066460000000     0.0372798  
H375     H      0.689790000000     0.087600000000     0.132110000000     0.0302241  
H376     H      0.924270000000     0.036720000000     0.027410000000     0.0892369  
H377     H      0.971640000000     0.046160000000     0.039780000000     0.124492   
H378     H      0.207670000000     0.144920000000     0.001570000000     0.0224361  
H379     H      0.440660000000     0.059770000000     0.014040000000     0.0263202  
H380     H      0.346710000000     0.163280000000     0.078730000000     0.0364587  
H381     H      0.365620000000     0.119680000000     0.972830000000     0.0361899  
H382     H      0.387510000000     0.073220000000     0.011630000000     0.0554669  
H383     H      0.304240000000     0.118820000000     0.980920000000     0.0378157  
H384     H      0.470030000000     0.196310000000     0.022650000000     0.0649547  
H385     H      0.275970000000     0.164990000000     0.994190000000     0.0526659  
H386     H      0.275500000000     0.098320000000     0.081260000000     0.0522955  
H387     H      0.408660000000     0.164940000000     0.070280000000     0.0351401  
H388     H      0.206680000000     0.077430000000     0.087400000000     0.027684   
H389     H      0.537430000000     0.218780000000     0.019390000000     0.0867361  
H390     H      0.556220000000     0.188370000000     0.011220000000     0.0995183  
H391     H      0.081870000000     0.672650000000     0.044250000000     0.00958193 
H392     H      0.102650000000     0.955150000000     0.075880000000     0.0159301  
H393     H      0.103560000000     0.790380000000     0.046460000000     0.0378918  
H394     H      0.987710000000     0.803810000000     0.012790000000     0.0334335  
H395     H      0.102820000000     0.901410000000     0.052600000000     0.0550073  
H396     H      0.993160000000     0.749550000000     0.990890000000     0.0371784  
H397     H      0.978710000000     0.828350000000     0.066020000000     0.0625639  
H398     H      0.062520000000     0.718330000000     0.057740000000     0.0529557  
H399     H      0.041810000000     0.735660000000     0.954800000000     0.0529565  
H400     H      0.097150000000     0.841770000000     0.069500000000     0.0353367  
H401     H      0.059850000000     0.686490000000     0.941690000000     0.0219785  
H402     H      0.946910000000     0.854620000000     0.094320000000     0.088279   
H403     H      0.972090000000     0.902020000000     0.111230000000     0.115238   
H404     H      0.026370000000     0.156160000000     0.996100000000     0.019289   
H405     H      0.974980000000     0.409500000000     0.042700000000     0.0237017  
H406     H      0.966620000000     0.237030000000     0.009540000000     0.0365375  
H407     H      0.061740000000     0.330930000000     0.092430000000     0.0349322  
H408     H      0.964370000000     0.344090000000     0.050820000000     0.0553869  
H409     H      0.053180000000     0.265510000000     0.089940000000     0.0378475  
H410     H      0.089530000000     0.390990000000     0.057730000000     0.0665673  
H411     H      0.010850000000     0.208900000000     0.995100000000     0.0517636  
H412     H      0.999800000000     0.195410000000     0.100120000000     0.053076   
H413     H      0.975490000000     0.303050000000     0.011920000000     0.0328862  
H414     H      0.016790000000     0.144640000000     0.100330000000     0.0210806  
H415     H      0.131260000000     0.460280000000     0.060060000000     0.0903471  
H416     H      0.113070000000     0.493190000000     0.057300000000     0.121685   
N1       N      0.471940000000     0.479960000000     0.640910000000    -0.206629   
N2       N      0.524420000000     0.505530000000     0.912750000000    -0.209144   
N3       N      0.401280000000     0.442400000000     0.644820000000    -0.217431   
N4       N      0.520980000000     0.535110000000     0.404920000000    -0.226133   
N5       N      0.544980000000     0.549810000000     0.128620000000    -0.207503   
N6       N      0.590650000000     0.557750000000     0.408100000000    -0.221239   
N7       N      0.491040000000     0.627860000000     0.483890000000    -0.224157   
N8       N      0.506580000000     0.915970000000     0.517100000000    -0.208695   
N9       N      0.428150000000     0.599690000000     0.507540000000    -0.218686   
N10      N      0.532970000000     0.149720000000     0.582900000000    -0.221807   
N11      N      0.513050000000     0.415640000000     0.556030000000    -0.206357   
N12      N      0.579870000000     0.178070000000     0.541220000000    -0.222696   
N13      N      0.544200000000     0.080220000000     0.942880000000    -0.217818   
N14      N      0.492780000000     0.026860000000     0.667970000000    -0.210496   
N15      N      0.564270000000     0.149070000000     0.938270000000    -0.219187   
N16      N      0.546900000000     0.025200000000     0.176220000000    -0.203421   
N17      N      0.477550000000     0.988830000000     0.443360000000    -0.202189   
N18      N      0.557190000000     0.089500000000     0.183730000000    -0.22102    
N19      N      0.564980000000     0.670620000000     0.998720000000    -0.227331   
N20      N      0.554170000000     0.939590000000     0.043920000000    -0.20227    
N21      N      0.535430000000     0.658460000000     0.943600000000    -0.220315   
N22      N      0.586600000000     0.176250000000     0.112010000000    -0.222461   
N23      N      0.573070000000     0.456180000000     0.088660000000    -0.203209   
N24      N      0.525000000000     0.143530000000     0.139260000000    -0.220647   
N25      N      0.860400000000     0.415590000000     0.443000000000    -0.224826   
N26      N      0.588500000000     0.132950000000     0.480180000000    -0.207486   
N27      N      0.871690000000     0.396710000000     0.391310000000    -0.22075    
N28      N      0.373450000000     0.920350000000     0.572680000000    -0.226019   
N29      N      0.091590000000     0.630910000000     0.518360000000    -0.208761   
N30      N      0.383070000000     0.892940000000     0.624160000000    -0.220827   
N31      N      0.866370000000     0.488270000000     0.534750000000    -0.222165   
N32      N      0.590910000000     0.494170000000     0.518710000000    -0.20799    
N33      N      0.871450000000     0.466150000000     0.590200000000    -0.219834   
N34      N      0.380850000000     0.513980000000     0.555530000000    -0.224221   
N35      N      0.092500000000     0.501820000000     0.483840000000    -0.211898   
N36      N      0.397640000000     0.558210000000     0.600470000000    -0.220088   
N37      N      0.054460000000     0.544900000000     0.871330000000    -0.226162   
N38      N      0.010960000000     0.525620000000     0.591900000000    -0.202547   
N39      N      0.071520000000     0.493870000000     0.870620000000    -0.220176   
N40      N      0.015970000000     0.528310000000     0.091240000000    -0.221257   
N41      N      0.989320000000     0.497890000000     0.365790000000    -0.209131   
N42      N      0.081150000000     0.576950000000     0.110900000000    -0.214367   
N43      N      0.981610000000     0.418550000000     0.938460000000    -0.205124   
N44      N      0.694800000000     0.151420000000     0.003110000000    -0.208357   
N45      N      0.942300000000     0.439660000000     0.906270000000    -0.218982   
N46      N      0.459300000000     0.943860000000     0.074260000000    -0.226337   
N47      N      0.196570000000     0.643430000000     0.025720000000    -0.203339   
N48      N      0.409360000000     0.961380000000     0.061310000000    -0.217817   
N49      N      0.680450000000     0.563750000000     0.975910000000    -0.225834   
N50      N      0.977820000000     0.591650000000     0.980770000000    -0.198749   
N51      N      0.693170000000     0.560480000000     0.034430000000    -0.221752   
N52      N      0.474540000000     0.579290000000     0.015600000000    -0.213972   
N53      N      0.180890000000     0.559360000000     0.953150000000    -0.206023   
N54      N      0.484240000000     0.615960000000     0.064600000000    -0.220332   
N55      N      0.587640000000     0.638070000000     0.582870000000    -0.21209    
N56      N      0.881750000000     0.895860000000     0.593490000000    -0.210495   
N57      N      0.607310000000     0.666740000000     0.529080000000    -0.222      
N58      N      0.075960000000     0.116770000000     0.496290000000    -0.217861   
N59      N      0.369220000000     0.395220000000     0.499300000000    -0.202741   
N60      N      0.099220000000     0.085890000000     0.461880000000    -0.221725   
N61      N      0.619190000000     0.032500000000     0.590880000000    -0.230286   
N62      N      0.894670000000     0.034640000000     0.549270000000    -0.210726   
N63      N      0.648330000000     0.101520000000     0.599910000000    -0.219505   
N64      N      0.415180000000     0.090180000000     0.509540000000    -0.218415   
N65      N      0.137930000000     0.072300000000     0.575440000000    -0.20613    
N66      N      0.383240000000     0.062920000000     0.457450000000    -0.223009   
N67      N      0.986010000000     0.628530000000     0.442280000000    -0.229563   
N68      N      0.983570000000     0.891340000000     0.540330000000    -0.201958   
N69      N      0.916900000000     0.597430000000     0.427990000000    -0.220345   
N70      N      0.006550000000     0.132090000000     0.614560000000    -0.206279   
N71      N      0.938320000000     0.369930000000     0.538070000000    -0.195956   
N72      N      0.073050000000     0.185770000000     0.620550000000    -0.21782    
N73      N      0.052570000000     0.027690000000     0.671590000000    -0.228534   
N74      N      0.084790000000     0.050260000000     0.949050000000    -0.204385   
N75      N      0.023050000000     0.957440000000     0.675610000000    -0.220119   
N76      N      0.005700000000     0.995750000000     0.445900000000    -0.226431   
N77      N      0.076760000000     0.033080000000     0.175520000000    -0.208042   
N78      N      0.957540000000     0.014840000000     0.429690000000    -0.218616   
N79      N      0.982890000000     0.949200000000     0.004820000000    -0.22478    
N80      N      0.701450000000     0.655890000000     0.023750000000    -0.20407    
N81      N      0.941750000000     0.977380000000     0.994450000000    -0.219366   
N82      N      0.188530000000     0.188060000000     0.069660000000    -0.227397   
N83      N      0.487510000000     0.406040000000     0.998060000000    -0.185581   
N84      N      0.177730000000     0.232270000000     0.033840000000    -0.221375   
N85      N      0.965190000000     0.055920000000     0.104130000000    -0.224043   
N86      N      0.689260000000     0.076010000000     0.081230000000    -0.199512   
N87      N      0.944960000000     0.042120000000     0.046830000000    -0.220421   
N88      N      0.486950000000     0.119880000000     0.020810000000    -0.225478   
N89      N      0.201890000000     0.108910000000     0.044570000000    -0.200129   
N90      N      0.532250000000     0.190120000000     0.018100000000    -0.218691   
N91      N      0.040130000000     0.925250000000     0.082660000000    -0.204048   
N92      N      0.073840000000     0.677390000000     0.991760000000    -0.211523   
N93      N      0.972620000000     0.882110000000     0.095720000000    -0.218011   
N94      N      0.038220000000     0.438120000000     0.042500000000    -0.225798   
N95      N      0.025160000000     0.148760000000     0.048470000000    -0.208331   
N96      N      0.107280000000     0.464480000000     0.055120000000    -0.220283   
O1       O      0.064060000000     0.130500000000     0.078130000000    -0.459591   
O2       O      0.046900000000     0.983910000000     0.024000000000    -0.455541   
O3       O      0.066780000000     0.067140000000     0.995010000000    -0.450389   
O4       O      0.994570000000     0.024480000000     0.083870000000    -0.436442   
O5       O      0.107480000000     0.045750000000     0.001560000000    -0.409848   
O6       O      0.029350000000     0.072810000000     0.117700000000    -0.443345   
O7       O      0.010570000000     0.006760000000     0.032630000000    -0.436661   
O8       O      0.049420000000     0.113380000000     0.026020000000    -0.445299   
O9       O      0.102050000000     0.075260000000     0.131810000000    -0.457963   
O10      O      0.141920000000     0.063610000000     0.064300000000    -0.411883   
O11      O      0.125020000000     0.156160000000     0.048830000000    -0.460688   
O12      O      0.009180000000     0.962060000000     0.084640000000    -0.407583   
O13      O      0.074950000000     0.993010000000     0.086470000000    -0.448994   
O14      O      0.137550000000     0.133990000000     0.093860000000    -0.45315    
O15      O      0.049560000000     0.019730000000     0.123160000000    -0.423199   
O16      O      0.144760000000     0.107680000000     0.026640000000    -0.421214   
O17      O      0.073600000000     0.066620000000     0.062810000000    -0.588907   
O18      O      0.021680000000     0.985420000000     0.499010000000    -0.45721    
O19      O      0.991160000000     0.067210000000     0.609280000000    -0.464651   
O20      O      0.937150000000     0.018770000000     0.527440000000    -0.449042   
O21      O      0.028050000000     0.083040000000     0.533690000000    -0.426461   
O22      O      0.928510000000     0.011350000000     0.580180000000    -0.477763   
O23      O      0.063850000000     0.057850000000     0.519850000000    -0.428644   
O24      O      0.047750000000     0.115690000000     0.591370000000    -0.420631   
O25      O      0.985240000000     0.010560000000     0.492390000000    -0.454904   
O26      O      0.073740000000     0.024740000000     0.581580000000    -0.450426   
O27      O      0.940600000000     0.951680000000     0.604710000000    -0.443779   
O28      O      0.965570000000     0.937820000000     0.529000000000    -0.426658   
O29      O      0.047360000000     0.057740000000     0.623270000000    -0.428171   
O30      O      0.001730000000     0.999950000000     0.633530000000    -0.46486    
O31      O      0.020550000000     0.954260000000     0.559100000000    -0.437475   
O32      O      0.086890000000     0.084270000000     0.573530000000    -0.4054     
O33      O      0.913080000000     0.945900000000     0.556180000000    -0.461893   
O34      O      0.999900000000     0.010900000000     0.563070000000    -0.577836   
O35      O      0.045310000000     0.462220000000     0.957220000000    -0.421098   
O36      O      0.103150000000     0.642760000000     0.008840000000    -0.483832   
O37      O      0.999290000000     0.549640000000     0.970740000000    -0.423159   
O38      O      0.070520000000     0.583920000000     0.916180000000    -0.458383   
O39      O      0.027130000000     0.589410000000     0.013470000000    -0.408755   
O40      O      0.062300000000     0.525940000000     0.924200000000    -0.438191   
O41      O      0.080950000000     0.634940000000     0.959320000000    -0.434081   
O42      O      0.002080000000     0.483100000000     0.950950000000    -0.434292   
O43      O      0.117020000000     0.526320000000     0.967990000000    -0.439016   
O44      O      0.059390000000     0.545240000000     0.050590000000    -0.45856    
O45      O      0.011230000000     0.471070000000     0.015030000000    -0.46354    
O46      O      0.148510000000     0.627760000000     0.985580000000    -0.436717   
O47      O      0.131130000000     0.599250000000     0.034720000000    -0.426148   
O48      O      0.072890000000     0.496780000000     0.014260000000    -0.430311   
O49      O      0.137450000000     0.581240000000     0.939810000000    -0.444735   
O50      O      0.999470000000     0.524850000000     0.035500000000    -0.400865   
O51      O      0.071860000000     0.559620000000     0.985590000000    -0.592269   
O52      O      0.926510000000     0.437150000000     0.440420000000    -0.45859    
O53      O      0.958530000000     0.565070000000     0.459270000000    -0.450829   
O54      O      0.920680000000     0.480330000000     0.539680000000    -0.399875   
O55      O      0.002370000000     0.533730000000     0.411930000000    -0.468881   
O56      O      0.917050000000     0.515020000000     0.499870000000    -0.456947   
O57      O      0.995810000000     0.475880000000     0.417660000000    -0.436766   
O58      O      0.018330000000     0.593820000000     0.446070000000    -0.451439   
O59      O      0.905780000000     0.443510000000     0.485700000000    -0.43522    
O60      O      0.025580000000     0.469610000000     0.480390000000    -0.47031    
O61      O      0.983920000000     0.539740000000     0.545580000000    -0.444751   
O62      O      0.931180000000     0.423950000000     0.542090000000    -0.40092    
O63      O      0.062420000000     0.573970000000     0.489860000000    -0.474059   
O64      O      0.025000000000     0.594880000000     0.505810000000    -0.444711   
O65      O      0.956430000000     0.418850000000     0.498350000000    -0.49151    
O66      O      0.056880000000     0.522430000000     0.450820000000    -0.461568   
O67      O      0.996470000000     0.491710000000     0.544000000000    -0.434596   
O68      O      0.981710000000     0.510400000000     0.479690000000    -0.540108   
O69      O      0.502810000000     0.073680000000     0.038650000000    -0.436855   
O70      O      0.554540000000     0.996370000000     0.028940000000    -0.451522   
O71      O      0.581250000000     0.112590000000     0.990110000000    -0.421377   
O72      O      0.522530000000     0.990240000000     0.090000000000    -0.428729   
O73      O      0.553420000000     0.048300000000     0.987860000000    -0.444988   
O74      O      0.488830000000     0.009950000000     0.062340000000    -0.451375   
O75      O      0.584220000000     0.995510000000     0.075230000000    -0.393124   
O76      O      0.550160000000     0.133070000000     0.034970000000    -0.454674   
O77      O      0.539030000000     0.045610000000     0.123620000000    -0.448044   
O78      O      0.633130000000     0.096430000000     0.997080000000    -0.445409   
O79      O      0.609230000000     0.144800000000     0.081660000000    -0.442942   
O80      O      0.631590000000     0.073160000000     0.094280000000    -0.42265    
O81      O      0.634670000000     0.051650000000     0.046010000000    -0.439295   
O82      O      0.548410000000     0.112880000000     0.094340000000    -0.456328   
O83      O      0.578320000000     0.019990000000     0.132990000000    -0.414574   
O84      O      0.645980000000     0.132000000000     0.039030000000    -0.458783   
O85      O      0.570810000000     0.067270000000     0.052230000000    -0.573917   
O86      O      0.440920000000     0.057610000000     0.539210000000    -0.519694   
O87      O      0.540740000000     0.981940000000     0.528720000000    -0.449294   
O88      O      0.460840000000     0.009040000000     0.488880000000    -0.422444   
O89      O      0.439570000000     0.952550000000     0.587100000000    -0.449692   
O90      O      0.520480000000     0.018120000000     0.486820000000    -0.45783    
O91      O      0.415240000000     0.985280000000     0.560490000000    -0.464052   
O92      O      0.483340000000     0.945340000000     0.548430000000    -0.468367   
O93      O      0.459020000000     0.075370000000     0.489190000000    -0.397387   
O94      O      0.457850000000     0.013790000000     0.618570000000    -0.455372   
O95      O      0.566870000000     0.088240000000     0.522510000000    -0.473429   
O96      O      0.512830000000     0.104320000000     0.541720000000    -0.39835    
O97      O      0.551770000000     0.992970000000     0.587220000000    -0.439941   
O98      O      0.578530000000     0.051690000000     0.567420000000    -0.46517    
O99      O      0.494220000000     0.083250000000     0.591070000000    -0.451894   
O100     O      0.509630000000     0.008720000000     0.622070000000    -0.467322   
O101     O      0.524780000000     0.082640000000     0.484750000000    -0.40094    
O102     O      0.500670000000     0.025370000000     0.552010000000    -0.545883   
O103     O      0.552830000000     0.454790000000     0.006840000000    -0.403182   
O104     O      0.601510000000     0.644900000000     0.021400000000    -0.471652   
O105     O      0.497750000000     0.536830000000     0.012550000000    -0.417128   
O106     O      0.548190000000     0.555050000000     0.949270000000    -0.466342   
O107     O      0.532590000000     0.589710000000     0.043580000000    -0.408788   
O108     O      0.555490000000     0.505330000000     0.962070000000    -0.418104   
O109     O      0.565340000000     0.616450000000     0.979540000000    -0.450314   
O110     O      0.505830000000     0.471160000000     0.001030000000    -0.442961   
O111     O      0.621970000000     0.525820000000     0.000220000000    -0.438771   
O112     O      0.581310000000     0.564110000000     0.083250000000    -0.453486   
O113     O      0.531880000000     0.476120000000     0.064410000000    -0.445157   
O114     O      0.642390000000     0.625430000000     0.995380000000    -0.448691   
O115     O      0.643240000000     0.614720000000     0.049290000000    -0.428746   
O116     O      0.591690000000     0.508560000000     0.053170000000    -0.428629   
O117     O      0.624500000000     0.566230000000     0.960650000000    -0.443232   
O118     O      0.518340000000     0.532590000000     0.076370000000    -0.422404   
O119     O      0.574570000000     0.556510000000     0.016420000000    -0.595344   
O120     O      0.426660000000     0.447370000000     0.480790000000    -0.433539   
O121     O      0.488460000000     0.584880000000     0.524690000000    -0.402025   
O122     O      0.419570000000     0.490160000000     0.540940000000    -0.455693   
O123     O      0.544130000000     0.547710000000     0.458830000000    -0.444486   
O124     O      0.447220000000     0.541340000000     0.569350000000    -0.409927   
O125     O      0.483240000000     0.503910000000     0.448750000000    -0.455209   
O126     O      0.522020000000     0.592090000000     0.482630000000    -0.455957   
O127     O      0.423710000000     0.431770000000     0.532800000000    -0.408197   
O128     O      0.539440000000     0.489300000000     0.485130000000    -0.439771   
O129     O      0.498960000000     0.516510000000     0.593430000000    -0.427617   
O130     O      0.501220000000     0.466630000000     0.560020000000    -0.43089    
O131     O      0.554310000000     0.591240000000     0.543750000000    -0.496682   
O132     O      0.521460000000     0.591080000000     0.585330000000    -0.370582   
O133     O      0.482060000000     0.433140000000     0.515180000000    -0.454292   
O134     O      0.567060000000     0.535750000000     0.521840000000    -0.470806   
O135     O      0.442070000000     0.460870000000     0.589820000000    -0.435801   
O136     O      0.487150000000     0.512650000000     0.515460000000    -0.594745   


