data_structure

_audit_creation_method RASPA-1.0
_audit_creation_date 2023-5-9
_audit_author_name 'Poobodin Mano'

_cell_length_a    37.1206
_cell_length_b    37.0798
_cell_length_c    37.0796
_cell_angle_alpha 90
_cell_angle_beta  90
_cell_angle_gamma 90
_cell_volume      51037.3

_symmetry_cell_setting          triclinic
_symmetry_space_group_name_Hall 'P 1'
_symmetry_space_group_name_H-M  'P 1'
_symmetry_Int_Tables_number     1

_symmetry_equiv_pos_as_xyz 'x,y,z'

loop_
_atom_site_label
_atom_site_type_symbol
_atom_site_fract_x
_atom_site_fract_y
_atom_site_fract_z
_atom_site_charge
C1       C      0.507620000000     0.101080000000     0.210230000000     0.337575   
C2       C      0.078040000000     0.493310000000     0.335360000000     0.338089   
C3       C      0.494160000000     0.080870000000     0.333950000000     0.336012   
C4       C      0.099700000000     0.508980000000     0.210110000000     0.335307   
C5       C      0.036230000000     0.448240000000     0.187200000000     0.344767   
C6       C      0.424240000000     0.018720000000     0.318610000000     0.342382   
C7       C      0.445060000000     0.034660000000     0.188800000000     0.343562   
C8       C      0.017660000000     0.425490000000     0.318680000000     0.340302   
C9       C      0.017660000000     0.206590000000     0.099780000000     0.340252   
C10      C      0.445060000000     0.336470000000     0.490600000000     0.343664   
C11      C      0.036230000000     0.338070000000     0.077030000000     0.344755   
C12      C      0.424240000000     0.206670000000     0.506550000000     0.342873   
C13      C      0.494150000000     0.191320000000     0.444400000000     0.336094   
C14      C      0.099700000000     0.315160000000     0.016290000000     0.334626   
C15      C      0.078040000000     0.189910000000     0.031970000000     0.337885   
C16      C      0.507620000000     0.315040000000     0.424190000000     0.337553   
C17      C      0.333410000000     0.031440000000     0.079850000000     0.337484   
C18      C      0.207670000000     0.423760000000     0.508670000000     0.336433   
C19      C      0.207670000000     0.016610000000     0.101510000000     0.335954   
C20      C      0.333410000000     0.445430000000     0.493830000000     0.337648   
C21      C      0.316240000000     0.506420000000     0.425800000000     0.342024   
C22      C      0.186770000000     0.078280000000     0.035360000000     0.344343   
C23      C      0.316250000000     0.099470000000     0.018850000000     0.341646   
C24      C      0.186770000000     0.489910000000     0.446990000000     0.344391   
C25      C      0.381480000000     0.356370000000     0.478590000000    -0.00445604 
C26      C      0.416060000000     0.363880000000     0.492220000000    -0.0766297  
C27      C      0.422720000000     0.397930000000     0.507440000000    -0.00380953 
C28      C      0.395650000000     0.424010000000     0.508580000000    -0.00503048 
C29      C      0.361220000000     0.416770000000     0.494440000000    -0.0749456  
C30      C      0.354360000000     0.382540000000     0.479660000000    -0.00624032 
C31      C      0.378060000000     0.175440000000     0.043860000000    -0.0010153  
C32      C      0.390300000000     0.186440000000     0.509710000000    -0.0755959  
C33      C      0.373530000000     0.172800000000     0.478690000000    -0.00231046 
C34      C      0.347230000000     0.146000000000     0.481760000000    -0.00122921 
C35      C      0.336620000000     0.133350000000     0.015880000000    -0.075478   
C36      C      0.350980000000     0.149430000000     0.046940000000    -0.00254803 
C37      C      0.146920000000     0.347470000000     0.480730000000    -0.00276522 
C38      C      0.133750000000     0.335680000000     0.014250000000    -0.0725323  
C39      C      0.149450000000     0.349170000000     0.045970000000    -0.00361932 
C40      C      0.175580000000     0.376340000000     0.044180000000    -0.00229124 
C41      C      0.187260000000     0.389610000000     0.510660000000    -0.0731772  
C42      C      0.173890000000     0.373810000000     0.478940000000    -0.00306064 
C43      C      0.099640000000     0.127850000000     0.016890000000    -0.00519411 
C44      C      0.106700000000     0.162160000000     0.031460000000    -0.0750919  
C45      C      0.140680000000     0.168920000000     0.046740000000    -0.00619553 
C46      C      0.166820000000     0.141780000000     0.047870000000    -0.00422302 
C47      C      0.159470000000     0.107310000000     0.033800000000    -0.0771904  
C48      C      0.125660000000     0.100770000000     0.018090000000    -0.00362033 
C49      C      0.378050000000     0.481420000000     0.349840000000    -0.00100551 
C50      C      0.390300000000     0.015560000000     0.338830000000    -0.075976   
C51      C      0.373530000000     0.046580000000     0.352470000000    -0.00231387 
C52      C      0.347240000000     0.043510000000     0.379270000000    -0.00115172 
C53      C      0.336620000000     0.509390000000     0.391920000000    -0.0750714  
C54      C      0.350980000000     0.478340000000     0.375840000000    -0.00254555 
C55      C      0.125660000000     0.507180000000     0.424500000000    -0.003559   
C56      C      0.159470000000     0.491470000000     0.417960000000    -0.077154   
C57      C      0.166820000000     0.477410000000     0.383490000000    -0.00419013 
C58      C      0.140680000000     0.478530000000     0.356350000000    -0.00616631 
C59      C      0.106700000000     0.493810000000     0.363110000000    -0.0750989  
C60      C      0.099640000000     0.508380000000     0.397420000000    -0.005128   
C61      C      0.173900000000     0.046340000000     0.151470000000    -0.003153   
C62      C      0.187260000000     0.014620000000     0.135660000000    -0.0734341  
C63      C      0.175590000000     0.981090000000     0.148950000000    -0.00203435 
C64      C      0.149460000000     0.479300000000     0.176110000000    -0.00362188 
C65      C      0.133750000000     0.511020000000     0.189600000000    -0.0723054  
C66      C      0.146930000000     0.544550000000     0.177820000000    -0.00279379 
C67      C      0.422720000000     0.517830000000     0.127340000000    -0.00377711 
C68      C      0.416060000000     0.033050000000     0.161390000000    -0.0766864  
C69      C      0.381480000000     0.046680000000     0.168900000000    -0.00442736 
C70      C      0.354360000000     0.045610000000     0.142730000000    -0.00630463 
C71      C      0.361220000000     0.030830000000     0.108510000000    -0.0749461  
C72      C      0.395650000000     0.516690000000     0.101260000000    -0.00510069 
C73      C      0.513120000000     0.104230000000     0.394420000000    -0.00524143 
C74      C      0.496450000000     0.110360000000     0.360920000000    -0.0745694  
C75      C      0.980730000000     0.144250000000     0.354310000000    -0.00595184 
C76      C      0.980730000000     0.170960000000     0.381020000000    -0.00592761 
C77      C      0.496450000000     0.164350000000     0.414920000000    -0.0746441  
C78      C      0.513120000000     0.130850000000     0.421040000000    -0.00516531 
C79      C      0.046170000000     0.373950000000     0.351090000000    -0.00258219 
C80      C      0.014910000000     0.391290000000     0.338760000000    -0.0748085  
C81      C      0.981080000000     0.378830000000     0.350340000000    -0.00116307 
C82      C      0.478600000000     0.350900000000     0.375560000000    -0.0032695  
C83      C      0.509960000000     0.335830000000     0.390390000000    -0.0735463  
C84      C      0.543730000000     0.346790000000     0.377160000000    -0.00218935 
C85      C      0.023970000000     0.427720000000     0.124140000000    -0.00379906 
C86      C      0.036700000000     0.420060000000     0.159010000000    -0.0770163  
C87      C      0.049610000000     0.385250000000     0.166650000000    -0.00476614 
C88      C      0.049610000000     0.358620000000     0.140020000000    -0.00474004 
C89      C      0.036700000000     0.366260000000     0.105210000000    -0.0770614  
C90      C      0.023970000000     0.401130000000     0.097560000000    -0.00371469 
C91      C      0.543720000000     0.148100000000     0.178480000000    -0.00209269 
C92      C      0.509950000000     0.134880000000     0.189440000000    -0.0736295  
C93      C      0.478600000000     0.149710000000     0.174370000000    -0.00316003 
C94      C      0.981080000000     0.174930000000     0.146440000000    -0.00116376 
C95      C      0.014910000000     0.186510000000     0.133980000000    -0.0747857  
C96      C      0.046170000000     0.174180000000     0.151320000000    -0.00260385 
C97      C      0.507620000000     0.101080000000     0.710230000000     0.337565   
C98      C      0.078040000000     0.493310000000     0.835360000000     0.338093   
C99      C      0.494160000000     0.080870000000     0.833950000000     0.336018   
C100     C      0.099700000000     0.508980000000     0.710110000000     0.335313   
C101     C      0.036230000000     0.448240000000     0.687200000000     0.344812   
C102     C      0.424240000000     0.018720000000     0.818610000000     0.342384   
C103     C      0.445060000000     0.034660000000     0.688800000000     0.343722   
C104     C      0.017660000000     0.425490000000     0.818680000000     0.340303   
C105     C      0.017660000000     0.206590000000     0.599780000000     0.340278   
C106     C      0.445060000000     0.336470000000     0.990600000000     0.344183   
C107     C      0.036230000000     0.338070000000     0.577030000000     0.344956   
C108     C      0.424240000000     0.206670000000     0.006550000000     0.342578   
C109     C      0.494160000000     0.191320000000     0.944400000000     0.336054   
C110     C      0.099700000000     0.315160000000     0.516290000000     0.335125   
C111     C      0.078040000000     0.189910000000     0.531970000000     0.33791    
C112     C      0.507620000000     0.315040000000     0.924190000000     0.337546   
C113     C      0.333410000000     0.031440000000     0.579850000000     0.337648   
C114     C      0.207670000000     0.423760000000     0.008670000000     0.33601    
C115     C      0.207670000000     0.016610000000     0.601510000000     0.33597    
C116     C      0.333410000000     0.445420000000     0.993830000000     0.338008   
C117     C      0.316240000000     0.506420000000     0.925800000000     0.342165   
C118     C      0.186770000000     0.078280000000     0.535360000000     0.344352   
C119     C      0.316250000000     0.099470000000     0.518850000000     0.342131   
C120     C      0.186770000000     0.489910000000     0.946990000000     0.34438    
C121     C      0.381480000000     0.356370000000     0.978590000000    -0.0044437  
C122     C      0.416060000000     0.363880000000     0.992220000000    -0.0762884  
C123     C      0.422720000000     0.397930000000     0.007440000000    -0.00420123 
C124     C      0.395650000000     0.424010000000     0.008580000000    -0.00541035 
C125     C      0.361220000000     0.416770000000     0.994440000000    -0.0746133  
C126     C      0.354360000000     0.382540000000     0.979660000000    -0.00623066 
C127     C      0.378040000000     0.175450000000     0.543860000000    -0.00100299 
C128     C      0.390300000000     0.186440000000     0.009710000000    -0.0760016  
C129     C      0.373520000000     0.172810000000     0.978690000000    -0.00192597 
C130     C      0.347220000000     0.146010000000     0.981760000000    -0.000792138
C131     C      0.336620000000     0.133350000000     0.515890000000    -0.0751381  
C132     C      0.350960000000     0.149450000000     0.546940000000    -0.0025478  
C133     C      0.146940000000     0.347450000000     0.980720000000    -0.00245548 
C134     C      0.133750000000     0.335680000000     0.514260000000    -0.0722506  
C135     C      0.149470000000     0.349160000000     0.545970000000    -0.00358439 
C136     C      0.175600000000     0.376320000000     0.544180000000    -0.00230562 
C137     C      0.187260000000     0.389610000000     0.010650000000    -0.0735799  
C138     C      0.173910000000     0.373790000000     0.978940000000    -0.00260546 
C139     C      0.099640000000     0.127850000000     0.516890000000    -0.00512829 
C140     C      0.106700000000     0.162160000000     0.531460000000    -0.0750646  
C141     C      0.140680000000     0.168920000000     0.546740000000    -0.00615291 
C142     C      0.166820000000     0.141780000000     0.547870000000    -0.00424549 
C143     C      0.159470000000     0.107310000000     0.533800000000    -0.0771252  
C144     C      0.125660000000     0.100770000000     0.518090000000    -0.00360645 
C145     C      0.378050000000     0.481420000000     0.849840000000    -0.000990585
C146     C      0.390300000000     0.015560000000     0.838830000000    -0.0759739  
C147     C      0.373530000000     0.046580000000     0.852470000000    -0.00229752 
C148     C      0.347230000000     0.043510000000     0.879270000000    -0.00117597 
C149     C      0.336620000000     0.509390000000     0.891920000000    -0.0751095  
C150     C      0.350980000000     0.478340000000     0.875840000000    -0.0025179  
C151     C      0.125660000000     0.507180000000     0.924500000000    -0.00355359 
C152     C      0.159470000000     0.491470000000     0.917960000000    -0.0770938  
C153     C      0.166820000000     0.477410000000     0.883490000000    -0.00419832 
C154     C      0.140680000000     0.478530000000     0.856350000000    -0.00615097 
C155     C      0.106700000000     0.493810000000     0.863110000000    -0.0750996  
C156     C      0.099640000000     0.508380000000     0.897420000000    -0.00509299 
C157     C      0.173900000000     0.046340000000     0.651470000000    -0.0031413  
C158     C      0.187260000000     0.014620000000     0.635660000000    -0.0734472  
C159     C      0.175590000000     0.981090000000     0.648950000000    -0.00200607 
C160     C      0.149460000000     0.479300000000     0.676110000000    -0.00360273 
C161     C      0.133750000000     0.511020000000     0.689600000000    -0.0723217  
C162     C      0.146930000000     0.544550000000     0.677820000000    -0.00276969 
C163     C      0.422720000000     0.517830000000     0.627340000000    -0.00378852 
C164     C      0.416060000000     0.033050000000     0.661390000000    -0.0767082  
C165     C      0.381480000000     0.046680000000     0.668900000000    -0.00444889 
C166     C      0.354360000000     0.045610000000     0.642730000000    -0.00626058 
C167     C      0.361220000000     0.030830000000     0.608500000000    -0.0750656  
C168     C      0.395650000000     0.516690000000     0.601260000000    -0.00507832 
C169     C      0.513120000000     0.104230000000     0.894420000000    -0.00520262 
C170     C      0.496450000000     0.110360000000     0.860920000000    -0.0745716  
C171     C      0.980730000000     0.144250000000     0.854310000000    -0.00592457 
C172     C      0.980730000000     0.170960000000     0.881020000000    -0.00595472 
C173     C      0.496450000000     0.164350000000     0.914920000000    -0.0745782  
C174     C      0.513120000000     0.130850000000     0.921040000000    -0.00516851 
C175     C      0.046170000000     0.373950000000     0.851090000000    -0.00257145 
C176     C      0.014910000000     0.391290000000     0.838760000000    -0.0748048  
C177     C      0.981080000000     0.378830000000     0.850340000000    -0.00115393 
C178     C      0.478600000000     0.350900000000     0.875560000000    -0.00326405 
C179     C      0.509960000000     0.335830000000     0.890390000000    -0.073524   
C180     C      0.543730000000     0.346790000000     0.877160000000    -0.00218669 
C181     C      0.023970000000     0.427720000000     0.624140000000    -0.00379514 
C182     C      0.036700000000     0.420060000000     0.659020000000    -0.0770717  
C183     C      0.049610000000     0.385250000000     0.666650000000    -0.00474055 
C184     C      0.049600000000     0.358620000000     0.640020000000    -0.00471801 
C185     C      0.036700000000     0.366260000000     0.605210000000    -0.0771176  
C186     C      0.023970000000     0.401130000000     0.597560000000    -0.00367637 
C187     C      0.543720000000     0.148100000000     0.678480000000    -0.00213858 
C188     C      0.509950000000     0.134880000000     0.689440000000    -0.0736083  
C189     C      0.478600000000     0.149710000000     0.674370000000    -0.00317721 
C190     C      0.981080000000     0.174930000000     0.646440000000    -0.00113455 
C191     C      0.014910000000     0.186510000000     0.633980000000    -0.0748354  
C192     C      0.046160000000     0.174180000000     0.651320000000    -0.00251333 
C193     C      0.507620000000     0.601080000000     0.210230000000     0.337458   
C194     C      0.078040000000     0.993310000000     0.335360000000     0.338535   
C195     C      0.494150000000     0.580870000000     0.333950000000     0.336068   
C196     C      0.099700000000     0.008980000000     0.210120000000     0.334954   
C197     C      0.036240000000     0.948240000000     0.187200000000     0.344765   
C198     C      0.424240000000     0.518720000000     0.318610000000     0.342839   
C199     C      0.445060000000     0.534670000000     0.188800000000     0.343587   
C200     C      0.017660000000     0.925490000000     0.318680000000     0.340288   
C201     C      0.017660000000     0.706590000000     0.099780000000     0.340253   
C202     C      0.445060000000     0.836470000000     0.490600000000     0.343689   
C203     C      0.036230000000     0.838070000000     0.077030000000     0.344747   
C204     C      0.424240000000     0.706670000000     0.506550000000     0.342863   
C205     C      0.494150000000     0.691320000000     0.444400000000     0.33608    
C206     C      0.099700000000     0.815160000000     0.016290000000     0.33464    
C207     C      0.078040000000     0.689910000000     0.031970000000     0.337884   
C208     C      0.507620000000     0.815040000000     0.424190000000     0.337566   
C209     C      0.333410000000     0.531440000000     0.079850000000     0.337505   
C210     C      0.207670000000     0.923760000000     0.508670000000     0.336419   
C211     C      0.207670000000     0.516600000000     0.101510000000     0.336561   
C212     C      0.333410000000     0.945430000000     0.493830000000     0.337628   
C213     C      0.316240000000     0.006420000000     0.425800000000     0.341738   
C214     C      0.186770000000     0.578280000000     0.035370000000     0.344379   
C215     C      0.316250000000     0.599470000000     0.018850000000     0.341663   
C216     C      0.186770000000     0.989910000000     0.446990000000     0.344832   
C217     C      0.381480000000     0.856370000000     0.478590000000    -0.00442983 
C218     C      0.416060000000     0.863880000000     0.492220000000    -0.0766461  
C219     C      0.422720000000     0.897930000000     0.507440000000    -0.00374162 
C220     C      0.395650000000     0.924010000000     0.508580000000    -0.00506131 
C221     C      0.361220000000     0.916770000000     0.494440000000    -0.0748707  
C222     C      0.354360000000     0.882540000000     0.479660000000    -0.00625871 
C223     C      0.378050000000     0.675430000000     0.043860000000    -0.00102334 
C224     C      0.390300000000     0.686440000000     0.509710000000    -0.0755923  
C225     C      0.373530000000     0.672800000000     0.478690000000    -0.0023112  
C226     C      0.347230000000     0.646000000000     0.481760000000    -0.00122449 
C227     C      0.336620000000     0.633350000000     0.015880000000    -0.0754866  
C228     C      0.350980000000     0.649430000000     0.046940000000    -0.00254317 
C229     C      0.146920000000     0.847470000000     0.480730000000    -0.00275197 
C230     C      0.133750000000     0.835680000000     0.014250000000    -0.0725775  
C231     C      0.149450000000     0.849170000000     0.045970000000    -0.00358524 
C232     C      0.175580000000     0.876340000000     0.044180000000    -0.00231015 
C233     C      0.187260000000     0.889610000000     0.510660000000    -0.0731399  
C234     C      0.173890000000     0.873810000000     0.478940000000    -0.00306305 
C235     C      0.099640000000     0.627850000000     0.016890000000    -0.00518906 
C236     C      0.106700000000     0.662160000000     0.031460000000    -0.0750908  
C237     C      0.140680000000     0.668920000000     0.046740000000    -0.00619415 
C238     C      0.166820000000     0.641780000000     0.047870000000    -0.00422403 
C239     C      0.159470000000     0.607310000000     0.033800000000    -0.0771863  
C240     C      0.125660000000     0.600770000000     0.018090000000    -0.00360543 
C241     C      0.378040000000     0.981420000000     0.349820000000    -0.000600095
C242     C      0.390300000000     0.515570000000     0.338840000000    -0.0756117  
C243     C      0.373520000000     0.546580000000     0.352460000000    -0.00229752 
C244     C      0.347220000000     0.543510000000     0.379260000000    -0.00120726 
C245     C      0.336620000000     0.009390000000     0.391920000000    -0.0755165  
C246     C      0.350960000000     0.978340000000     0.375820000000    -0.00213489 
C247     C      0.125660000000     0.007180000000     0.424500000000    -0.00397399 
C248     C      0.159470000000     0.991470000000     0.417960000000    -0.0767834  
C249     C      0.166820000000     0.977410000000     0.383490000000    -0.00418999 
C250     C      0.140680000000     0.978530000000     0.356350000000    -0.00616081 
C251     C      0.106700000000     0.993810000000     0.363110000000    -0.0747365  
C252     C      0.099640000000     0.008380000000     0.397420000000    -0.00551321 
C253     C      0.173900000000     0.546330000000     0.151480000000    -0.00302568 
C254     C      0.187260000000     0.514610000000     0.135660000000    -0.0732214  
C255     C      0.175580000000     0.481090000000     0.148940000000    -0.00227817 
C256     C      0.149460000000     0.979310000000     0.176110000000    -0.00306971 
C257     C      0.133750000000     0.011020000000     0.189600000000    -0.0727622  
C258     C      0.146930000000     0.044550000000     0.177810000000    -0.00266106 
C259     C      0.422720000000     0.017830000000     0.127340000000    -0.00381272 
C260     C      0.416060000000     0.533050000000     0.161390000000    -0.076641   
C261     C      0.381480000000     0.546680000000     0.168900000000    -0.00441782 
C262     C      0.354360000000     0.545610000000     0.142730000000    -0.00627831 
C263     C      0.361220000000     0.530830000000     0.108510000000    -0.0749085  
C264     C      0.395650000000     0.016700000000     0.101250000000    -0.00514649 
C265     C      0.513120000000     0.604230000000     0.394420000000    -0.00522215 
C266     C      0.496450000000     0.610360000000     0.360920000000    -0.074571   
C267     C      0.980730000000     0.644250000000     0.354310000000    -0.0059595  
C268     C      0.980730000000     0.670960000000     0.381020000000    -0.00590608 
C269     C      0.496450000000     0.664350000000     0.414920000000    -0.0746369  
C270     C      0.513120000000     0.630850000000     0.421040000000    -0.00516331 
C271     C      0.046170000000     0.873950000000     0.351090000000    -0.00258416 
C272     C      0.014910000000     0.891290000000     0.338760000000    -0.0747764  
C273     C      0.981080000000     0.878830000000     0.350340000000    -0.00116821 
C274     C      0.478600000000     0.850900000000     0.375560000000    -0.00324826 
C275     C      0.509960000000     0.835830000000     0.390390000000    -0.0735536  
C276     C      0.543730000000     0.846790000000     0.377160000000    -0.00216614 
C277     C      0.023970000000     0.927720000000     0.124140000000    -0.00375572 
C278     C      0.036700000000     0.920060000000     0.159010000000    -0.0769749  
C279     C      0.049610000000     0.885250000000     0.166650000000    -0.00476287 
C280     C      0.049610000000     0.858620000000     0.140020000000    -0.00474012 
C281     C      0.036700000000     0.866260000000     0.105210000000    -0.0770297  
C282     C      0.023970000000     0.901130000000     0.097550000000    -0.00373936 
C283     C      0.543720000000     0.648100000000     0.178480000000    -0.00212241 
C284     C      0.509950000000     0.634880000000     0.189440000000    -0.0735762  
C285     C      0.478600000000     0.649710000000     0.174370000000    -0.00319743 
C286     C      0.981080000000     0.674930000000     0.146440000000    -0.0011504  
C287     C      0.014910000000     0.686510000000     0.133980000000    -0.0747942  
C288     C      0.046170000000     0.674180000000     0.151320000000    -0.0025894  
C289     C      0.507620000000     0.601080000000     0.710230000000     0.337736   
C290     C      0.078040000000     0.993310000000     0.835360000000     0.33853    
C291     C      0.494160000000     0.580870000000     0.833950000000     0.336049   
C292     C      0.099700000000     0.008980000000     0.710120000000     0.334924   
C293     C      0.036230000000     0.948240000000     0.687200000000     0.344798   
C294     C      0.424240000000     0.518720000000     0.818610000000     0.342831   
C295     C      0.445060000000     0.534670000000     0.688800000000     0.343586   
C296     C      0.017660000000     0.925490000000     0.818680000000     0.34029    
C297     C      0.017660000000     0.706590000000     0.599780000000     0.340276   
C298     C      0.445060000000     0.836470000000     0.990600000000     0.344204   
C299     C      0.036230000000     0.838070000000     0.577030000000     0.344958   
C300     C      0.424240000000     0.706670000000     0.006550000000     0.342421   
C301     C      0.494160000000     0.691320000000     0.944400000000     0.336037   
C302     C      0.099700000000     0.815160000000     0.516290000000     0.335126   
C303     C      0.078040000000     0.689910000000     0.531970000000     0.337909   
C304     C      0.507620000000     0.815040000000     0.924190000000     0.337555   
C305     C      0.333410000000     0.531440000000     0.579850000000     0.337533   
C306     C      0.207670000000     0.923760000000     0.008670000000     0.335992   
C307     C      0.207670000000     0.516610000000     0.601510000000     0.336541   
C308     C      0.333410000000     0.945420000000     0.993830000000     0.33799    
C309     C      0.316240000000     0.006420000000     0.925800000000     0.341724   
C310     C      0.186770000000     0.578280000000     0.535360000000     0.344378   
C311     C      0.316250000000     0.599470000000     0.518850000000     0.34214    
C312     C      0.186770000000     0.989910000000     0.946990000000     0.344825   
C313     C      0.381480000000     0.856370000000     0.978590000000    -0.00442453 
C314     C      0.416060000000     0.863880000000     0.992220000000    -0.0762942  
C315     C      0.422720000000     0.897930000000     0.007440000000    -0.00416296 
C316     C      0.395650000000     0.924010000000     0.008580000000    -0.00540726 
C317     C      0.361220000000     0.916770000000     0.994440000000    -0.074551   
C318     C      0.354360000000     0.882540000000     0.979660000000    -0.00624149 
C319     C      0.378040000000     0.675450000000     0.543860000000    -0.00100453 
C320     C      0.390300000000     0.686440000000     0.009710000000    -0.075946   
C321     C      0.373520000000     0.672810000000     0.978690000000    -0.00195239 
C322     C      0.347220000000     0.646010000000     0.981760000000    -0.000775934
C323     C      0.336620000000     0.633350000000     0.515890000000    -0.0751401  
C324     C      0.350960000000     0.649450000000     0.546940000000    -0.00254735 
C325     C      0.146940000000     0.847450000000     0.980730000000    -0.002356   
C326     C      0.133750000000     0.835680000000     0.514260000000    -0.0722524  
C327     C      0.149470000000     0.849160000000     0.545970000000    -0.00356563 
C328     C      0.175600000000     0.876330000000     0.544180000000    -0.00232543 
C329     C      0.187260000000     0.889610000000     0.010650000000    -0.0735309  
C330     C      0.173910000000     0.873790000000     0.978940000000    -0.00265215 
C331     C      0.099640000000     0.627850000000     0.516890000000    -0.00514484 
C332     C      0.106700000000     0.662160000000     0.531460000000    -0.0750547  
C333     C      0.140680000000     0.668920000000     0.546740000000    -0.006157   
C334     C      0.166820000000     0.641780000000     0.547870000000    -0.00423981 
C335     C      0.159470000000     0.607310000000     0.533800000000    -0.0771259  
C336     C      0.125660000000     0.600770000000     0.518090000000    -0.00358433 
C337     C      0.378040000000     0.981420000000     0.849820000000    -0.000586787
C338     C      0.390300000000     0.515560000000     0.838840000000    -0.075589   
C339     C      0.373520000000     0.546580000000     0.852460000000    -0.00232804 
C340     C      0.347220000000     0.543510000000     0.879260000000    -0.00116539 
C341     C      0.336620000000     0.009390000000     0.891920000000    -0.0754751  
C342     C      0.350970000000     0.978340000000     0.875820000000    -0.00213708 
C343     C      0.125660000000     0.007180000000     0.924500000000    -0.00395613 
C344     C      0.159470000000     0.991470000000     0.917960000000    -0.0767379  
C345     C      0.166820000000     0.977410000000     0.883490000000    -0.00416687 
C346     C      0.140680000000     0.978530000000     0.856340000000    -0.00620221 
C347     C      0.106700000000     0.993810000000     0.863110000000    -0.0747076  
C348     C      0.099640000000     0.008380000000     0.897420000000    -0.00549287 
C349     C      0.173900000000     0.546330000000     0.651470000000    -0.00307263 
C350     C      0.187260000000     0.514610000000     0.635670000000    -0.0731419  
C351     C      0.175580000000     0.481090000000     0.648940000000    -0.00230579 
C352     C      0.149460000000     0.979310000000     0.676110000000    -0.00311582 
C353     C      0.133750000000     0.011020000000     0.689600000000    -0.0727332  
C354     C      0.146930000000     0.044550000000     0.677810000000    -0.0026759  
C355     C      0.422720000000     0.017830000000     0.627340000000    -0.00383744 
C356     C      0.416060000000     0.533050000000     0.661390000000    -0.0766333  
C357     C      0.381480000000     0.546680000000     0.668900000000    -0.00441984 
C358     C      0.354360000000     0.545610000000     0.642730000000    -0.00627293 
C359     C      0.361220000000     0.530830000000     0.608510000000    -0.0749072  
C360     C      0.395650000000     0.016700000000     0.601260000000    -0.0050301  
C361     C      0.513120000000     0.604230000000     0.894420000000    -0.00518904 
C362     C      0.496450000000     0.610360000000     0.860920000000    -0.0745701  
C363     C      0.980730000000     0.644250000000     0.854310000000    -0.00593154 
C364     C      0.980730000000     0.670960000000     0.881020000000    -0.00593978 
C365     C      0.496450000000     0.664350000000     0.914920000000    -0.0745721  
C366     C      0.513120000000     0.630850000000     0.921040000000    -0.00516466 
C367     C      0.046170000000     0.873950000000     0.851090000000    -0.00257313 
C368     C      0.014910000000     0.891290000000     0.838760000000    -0.0747742  
C369     C      0.981080000000     0.878830000000     0.850340000000    -0.00115903 
C370     C      0.478600000000     0.850900000000     0.875560000000    -0.00325676 
C371     C      0.509960000000     0.835830000000     0.890390000000    -0.0735214  
C372     C      0.543730000000     0.846790000000     0.877160000000    -0.00217751 
C373     C      0.023970000000     0.927720000000     0.624140000000    -0.00378897 
C374     C      0.036700000000     0.920060000000     0.659020000000    -0.0770112  
C375     C      0.049610000000     0.885250000000     0.666650000000    -0.00474923 
C376     C      0.049600000000     0.858620000000     0.640020000000    -0.00470322 
C377     C      0.036700000000     0.866260000000     0.605210000000    -0.0771168  
C378     C      0.023970000000     0.901130000000     0.597560000000    -0.00364215 
C379     C      0.543720000000     0.648100000000     0.678480000000    -0.00210284 
C380     C      0.509950000000     0.634880000000     0.689440000000    -0.0736795  
C381     C      0.478600000000     0.649710000000     0.674370000000    -0.00314353 
C382     C      0.981080000000     0.674930000000     0.646440000000    -0.00115344 
C383     C      0.014910000000     0.686510000000     0.633980000000    -0.0748187  
C384     C      0.046160000000     0.674180000000     0.651320000000    -0.00253666 
C385     C      0.007620000000     0.101080000000     0.210230000000     0.337166   
C386     C      0.578040000000     0.493310000000     0.335360000000     0.338147   
C387     C      0.994160000000     0.080870000000     0.333950000000     0.336438   
C388     C      0.599700000000     0.508980000000     0.210110000000     0.335352   
C389     C      0.536230000000     0.448240000000     0.187200000000     0.34479    
C390     C      0.924240000000     0.018720000000     0.318610000000     0.342374   
C391     C      0.945060000000     0.034660000000     0.188800000000     0.343705   
C392     C      0.517660000000     0.425490000000     0.318680000000     0.340826   
C393     C      0.517660000000     0.206590000000     0.099780000000     0.340709   
C394     C      0.945060000000     0.336470000000     0.490600000000     0.34365    
C395     C      0.536230000000     0.338070000000     0.077030000000     0.344772   
C396     C      0.924240000000     0.206670000000     0.506550000000     0.342866   
C397     C      0.994160000000     0.191320000000     0.444400000000     0.336493   
C398     C      0.599700000000     0.315160000000     0.016290000000     0.334637   
C399     C      0.578040000000     0.189910000000     0.031970000000     0.337905   
C400     C      0.007620000000     0.315040000000     0.424190000000     0.33716    
C401     C      0.833410000000     0.031440000000     0.079850000000     0.337484   
C402     C      0.707670000000     0.423760000000     0.508670000000     0.336432   
C403     C      0.707660000000     0.016610000000     0.101510000000     0.335934   
C404     C      0.833410000000     0.445430000000     0.493830000000     0.337651   
C405     C      0.816240000000     0.506420000000     0.425800000000     0.342025   
C406     C      0.686770000000     0.078280000000     0.035360000000     0.344344   
C407     C      0.816250000000     0.099470000000     0.018850000000     0.341647   
C408     C      0.686770000000     0.489910000000     0.446990000000     0.34434    
C409     C      0.881480000000     0.356370000000     0.478590000000    -0.004465   
C410     C      0.916060000000     0.363880000000     0.492220000000    -0.0765746  
C411     C      0.922720000000     0.397930000000     0.507440000000    -0.00380623 
C412     C      0.895650000000     0.424010000000     0.508580000000    -0.00499854 
C413     C      0.861220000000     0.416770000000     0.494440000000    -0.074947   
C414     C      0.854360000000     0.382540000000     0.479660000000    -0.00622626 
C415     C      0.878060000000     0.175440000000     0.043860000000    -0.00101556 
C416     C      0.890300000000     0.186440000000     0.509710000000    -0.0755764  
C417     C      0.873530000000     0.172800000000     0.478690000000    -0.00229648 
C418     C      0.847230000000     0.146000000000     0.481760000000    -0.00122899 
C419     C      0.836620000000     0.133350000000     0.015880000000    -0.0754767  
C420     C      0.850980000000     0.149430000000     0.046940000000    -0.00253739 
C421     C      0.646920000000     0.347470000000     0.480730000000    -0.00276146 
C422     C      0.633750000000     0.335680000000     0.014250000000    -0.0725348  
C423     C      0.649450000000     0.349170000000     0.045970000000    -0.00362112 
C424     C      0.675580000000     0.376340000000     0.044180000000    -0.00228389 
C425     C      0.687260000000     0.389610000000     0.510660000000    -0.0731765  
C426     C      0.673890000000     0.373810000000     0.478940000000    -0.00306041 
C427     C      0.599640000000     0.127850000000     0.016890000000    -0.00522168 
C428     C      0.606700000000     0.162160000000     0.031460000000    -0.0750696  
C429     C      0.640680000000     0.168920000000     0.046740000000    -0.00620341 
C430     C      0.666820000000     0.141780000000     0.047870000000    -0.00421529 
C431     C      0.659470000000     0.107310000000     0.033800000000    -0.0771981  
C432     C      0.625660000000     0.100770000000     0.018090000000    -0.00359553 
C433     C      0.878060000000     0.481420000000     0.349840000000    -0.00101387 
C434     C      0.890300000000     0.015560000000     0.338830000000    -0.0759541  
C435     C      0.873530000000     0.046580000000     0.352470000000    -0.00230361 
C436     C      0.847230000000     0.043510000000     0.379270000000    -0.00115687 
C437     C      0.836620000000     0.509390000000     0.391920000000    -0.0750724  
C438     C      0.850980000000     0.478340000000     0.375840000000    -0.00253035 
C439     C      0.625660000000     0.507180000000     0.424500000000    -0.0035722  
C440     C      0.659460000000     0.491470000000     0.417960000000    -0.0770805  
C441     C      0.666820000000     0.477410000000     0.383490000000    -0.00424078 
C442     C      0.640680000000     0.478530000000     0.356350000000    -0.00613584 
C443     C      0.606700000000     0.493810000000     0.363110000000    -0.0751191  
C444     C      0.599640000000     0.508380000000     0.397420000000    -0.00510051 
C445     C      0.673900000000     0.046340000000     0.151470000000    -0.00313176 
C446     C      0.687260000000     0.014620000000     0.135660000000    -0.0734811  
C447     C      0.675590000000     0.981090000000     0.148950000000    -0.00201123 
C448     C      0.649460000000     0.479300000000     0.176110000000    -0.00360225 
C449     C      0.633750000000     0.511020000000     0.189600000000    -0.0723315  
C450     C      0.646930000000     0.544550000000     0.177810000000    -0.00276575 
C451     C      0.922720000000     0.517830000000     0.127340000000    -0.00377386 
C452     C      0.916060000000     0.033050000000     0.161390000000    -0.0766887  
C453     C      0.881480000000     0.046680000000     0.168900000000    -0.00440923 
C454     C      0.854360000000     0.045610000000     0.142730000000    -0.00630427 
C455     C      0.861220000000     0.030830000000     0.108510000000    -0.0749363  
C456     C      0.895650000000     0.516690000000     0.101260000000    -0.00506876 
C457     C      0.013120000000     0.104230000000     0.394420000000    -0.00561501 
C458     C      0.996450000000     0.110360000000     0.360920000000    -0.0742183  
C459     C      0.480730000000     0.144250000000     0.354310000000    -0.00595606 
C460     C      0.480730000000     0.170960000000     0.381020000000    -0.00593272 
C461     C      0.996450000000     0.164350000000     0.414920000000    -0.0742866  
C462     C      0.013120000000     0.130850000000     0.421040000000    -0.00554731 
C463     C      0.546170000000     0.373950000000     0.351090000000    -0.00248432 
C464     C      0.514910000000     0.391290000000     0.338750000000    -0.074599   
C465     C      0.481080000000     0.378830000000     0.350340000000    -0.00142311 
C466     C      0.978600000000     0.350900000000     0.375560000000    -0.00281155 
C467     C      0.009960000000     0.335830000000     0.390390000000    -0.073964   
C468     C      0.043730000000     0.346790000000     0.377160000000    -0.00208655 
C469     C      0.523970000000     0.427720000000     0.124140000000    -0.0037662  
C470     C      0.536700000000     0.420060000000     0.159010000000    -0.0769797  
C471     C      0.549610000000     0.385250000000     0.166650000000    -0.00474579 
C472     C      0.549610000000     0.358620000000     0.140020000000    -0.00472182 
C473     C      0.536700000000     0.366260000000     0.105210000000    -0.0770221  
C474     C      0.523970000000     0.401130000000     0.097560000000    -0.00368364 
C475     C      0.043720000000     0.148100000000     0.178490000000    -0.0020929  
C476     C      0.009950000000     0.134880000000     0.189440000000    -0.0739893  
C477     C      0.978600000000     0.149710000000     0.174370000000    -0.00278249 
C478     C      0.481080000000     0.174930000000     0.146440000000    -0.00152598 
C479     C      0.514910000000     0.186510000000     0.133980000000    -0.0744636  
C480     C      0.546170000000     0.174180000000     0.151320000000    -0.00261726 
C481     C      0.007620000000     0.101080000000     0.710230000000     0.337146   
C482     C      0.578040000000     0.493310000000     0.835360000000     0.338124   
C483     C      0.994160000000     0.080870000000     0.833950000000     0.336446   
C484     C      0.599700000000     0.508980000000     0.710110000000     0.335326   
C485     C      0.536230000000     0.448240000000     0.687200000000     0.344828   
C486     C      0.924240000000     0.018720000000     0.818610000000     0.342374   
C487     C      0.945060000000     0.034660000000     0.688800000000     0.343706   
C488     C      0.517660000000     0.425490000000     0.818680000000     0.340819   
C489     C      0.517660000000     0.206590000000     0.599780000000     0.340734   
C490     C      0.945060000000     0.336470000000     0.990600000000     0.344171   
C491     C      0.536230000000     0.338070000000     0.577030000000     0.344976   
C492     C      0.924240000000     0.206670000000     0.006550000000     0.342567   
C493     C      0.994160000000     0.191320000000     0.944400000000     0.336429   
C494     C      0.599700000000     0.315160000000     0.516290000000     0.335137   
C495     C      0.578040000000     0.189910000000     0.531970000000     0.337929   
C496     C      0.007620000000     0.315040000000     0.924190000000     0.337153   
C497     C      0.833410000000     0.031440000000     0.579850000000     0.337651   
C498     C      0.707670000000     0.423760000000     0.008660000000     0.336032   
C499     C      0.707660000000     0.016610000000     0.601510000000     0.335948   
C500     C      0.833410000000     0.445420000000     0.993830000000     0.338008   
C501     C      0.816240000000     0.506420000000     0.925800000000     0.342166   
C502     C      0.686770000000     0.078280000000     0.535360000000     0.344359   
C503     C      0.816250000000     0.099470000000     0.518850000000     0.342156   
C504     C      0.686770000000     0.489910000000     0.946990000000     0.344328   
C505     C      0.881480000000     0.356370000000     0.978590000000    -0.00444892 
C506     C      0.916060000000     0.363880000000     0.992220000000    -0.0762386  
C507     C      0.922720000000     0.397930000000     0.007440000000    -0.00418623 
C508     C      0.895650000000     0.424010000000     0.008580000000    -0.00539755 
C509     C      0.861220000000     0.416770000000     0.994440000000    -0.0746086  
C510     C      0.854360000000     0.382540000000     0.979660000000    -0.00621997 
C511     C      0.878040000000     0.175450000000     0.543860000000    -0.00100039 
C512     C      0.890300000000     0.186440000000     0.009710000000    -0.0759761  
C513     C      0.873520000000     0.172810000000     0.978690000000    -0.0019247  
C514     C      0.847220000000     0.146010000000     0.981760000000    -0.000783233
C515     C      0.836620000000     0.133350000000     0.515890000000    -0.0751388  
C516     C      0.850970000000     0.149450000000     0.546940000000    -0.00253689 
C517     C      0.646940000000     0.347450000000     0.980720000000    -0.00244791 
C518     C      0.633750000000     0.335680000000     0.514260000000    -0.0722529  
C519     C      0.649470000000     0.349160000000     0.545970000000    -0.00358356 
C520     C      0.675600000000     0.376320000000     0.544180000000    -0.00230607 
C521     C      0.687260000000     0.389610000000     0.010650000000    -0.073579   
C522     C      0.673910000000     0.373790000000     0.978940000000    -0.00261833 
C523     C      0.599640000000     0.127850000000     0.516890000000    -0.00516279 
C524     C      0.606700000000     0.162160000000     0.531460000000    -0.0750336  
C525     C      0.640680000000     0.168920000000     0.546740000000    -0.00617858 
C526     C      0.666820000000     0.141780000000     0.547870000000    -0.0041996  
C527     C      0.659470000000     0.107310000000     0.533800000000    -0.077151   
C528     C      0.625660000000     0.100770000000     0.518090000000    -0.0035726  
C529     C      0.878060000000     0.481420000000     0.849840000000    -0.000998747
C530     C      0.890300000000     0.015560000000     0.838830000000    -0.075953   
C531     C      0.873530000000     0.046580000000     0.852470000000    -0.00228794 
C532     C      0.847230000000     0.043510000000     0.879270000000    -0.00116741 
C533     C      0.836620000000     0.509390000000     0.891920000000    -0.0751106  
C534     C      0.850980000000     0.478340000000     0.875840000000    -0.00250288 
C535     C      0.625660000000     0.507180000000     0.924500000000    -0.00356452 
C536     C      0.659460000000     0.491470000000     0.917960000000    -0.0770229  
C537     C      0.666820000000     0.477410000000     0.883490000000    -0.00424622 
C538     C      0.640680000000     0.478530000000     0.856350000000    -0.00612629 
C539     C      0.606700000000     0.493810000000     0.863110000000    -0.0751091  
C540     C      0.599640000000     0.508380000000     0.897420000000    -0.00507081 
C541     C      0.673900000000     0.046340000000     0.651470000000    -0.00312284 
C542     C      0.687260000000     0.014620000000     0.635660000000    -0.0734923  
C543     C      0.675590000000     0.981090000000     0.648950000000    -0.00198541 
C544     C      0.649460000000     0.479300000000     0.676110000000    -0.0035935  
C545     C      0.633750000000     0.511020000000     0.689600000000    -0.0723277  
C546     C      0.646930000000     0.544550000000     0.677820000000    -0.00276256 
C547     C      0.922720000000     0.517830000000     0.627340000000    -0.00378523 
C548     C      0.916060000000     0.033050000000     0.661390000000    -0.076652   
C549     C      0.881480000000     0.046680000000     0.668900000000    -0.00445833 
C550     C      0.854360000000     0.045610000000     0.642730000000    -0.00624627 
C551     C      0.861220000000     0.030830000000     0.608500000000    -0.0750663  
C552     C      0.895650000000     0.516690000000     0.601260000000    -0.00504653 
C553     C      0.013120000000     0.104230000000     0.894420000000    -0.00555604 
C554     C      0.996450000000     0.110360000000     0.860920000000    -0.0742321  
C555     C      0.480730000000     0.144250000000     0.854310000000    -0.00594004 
C556     C      0.480730000000     0.170960000000     0.881020000000    -0.00594103 
C557     C      0.996450000000     0.164350000000     0.914910000000    -0.0741557  
C558     C      0.013120000000     0.130850000000     0.921040000000    -0.00559135 
C559     C      0.546170000000     0.373950000000     0.851080000000    -0.00247264 
C560     C      0.514910000000     0.391290000000     0.838750000000    -0.0745943  
C561     C      0.481080000000     0.378830000000     0.850340000000    -0.00141484 
C562     C      0.978600000000     0.350900000000     0.875560000000    -0.0028067  
C563     C      0.009960000000     0.335830000000     0.890390000000    -0.0739408  
C564     C      0.043730000000     0.346790000000     0.877160000000    -0.00208432 
C565     C      0.523970000000     0.427720000000     0.624140000000    -0.00376702 
C566     C      0.536700000000     0.420060000000     0.659020000000    -0.0770283  
C567     C      0.549610000000     0.385250000000     0.666650000000    -0.00473106 
C568     C      0.549600000000     0.358620000000     0.640020000000    -0.00468085 
C569     C      0.536700000000     0.366260000000     0.605210000000    -0.0770865  
C570     C      0.523970000000     0.401130000000     0.597560000000    -0.00364054 
C571     C      0.043720000000     0.148100000000     0.678490000000    -0.00214423 
C572     C      0.009950000000     0.134880000000     0.689440000000    -0.0739612  
C573     C      0.978600000000     0.149710000000     0.674370000000    -0.00280374 
C574     C      0.481080000000     0.174930000000     0.646440000000    -0.00150103 
C575     C      0.514910000000     0.186510000000     0.633980000000    -0.0745062  
C576     C      0.546160000000     0.174180000000     0.651320000000    -0.00253796 
C577     C      0.007620000000     0.601080000000     0.210230000000     0.337043   
C578     C      0.578040000000     0.993310000000     0.335360000000     0.338562   
C579     C      0.994160000000     0.580870000000     0.333950000000     0.336465   
C580     C      0.599700000000     0.008980000000     0.210120000000     0.334942   
C581     C      0.536240000000     0.948240000000     0.187200000000     0.344856   
C582     C      0.924240000000     0.518720000000     0.318610000000     0.342828   
C583     C      0.945060000000     0.534670000000     0.188800000000     0.343572   
C584     C      0.517660000000     0.925490000000     0.318680000000     0.34077    
C585     C      0.517660000000     0.706590000000     0.099780000000     0.340748   
C586     C      0.945060000000     0.836470000000     0.490600000000     0.343675   
C587     C      0.536230000000     0.838070000000     0.077030000000     0.344761   
C588     C      0.924240000000     0.706670000000     0.506550000000     0.342858   
C589     C      0.994160000000     0.691320000000     0.444400000000     0.336583   
C590     C      0.599700000000     0.815160000000     0.016290000000     0.334638   
C591     C      0.578040000000     0.689910000000     0.031970000000     0.337916   
C592     C      0.007620000000     0.815040000000     0.424190000000     0.337172   
C593     C      0.833410000000     0.531440000000     0.079850000000     0.337509   
C594     C      0.707670000000     0.923760000000     0.508670000000     0.336423   
C595     C      0.707670000000     0.516600000000     0.101510000000     0.336556   
C596     C      0.833410000000     0.945430000000     0.493830000000     0.337617   
C597     C      0.816240000000     0.006420000000     0.425800000000     0.341748   
C598     C      0.686770000000     0.578280000000     0.035370000000     0.344329   
C599     C      0.816250000000     0.599470000000     0.018850000000     0.341664   
C600     C      0.686770000000     0.989910000000     0.446990000000     0.344836   
C601     C      0.881480000000     0.856370000000     0.478590000000    -0.0044377  
C602     C      0.916060000000     0.863880000000     0.492220000000    -0.0765926  
C603     C      0.922720000000     0.897930000000     0.507440000000    -0.00373674 
C604     C      0.895650000000     0.924010000000     0.508580000000    -0.00503252 
C605     C      0.861220000000     0.916770000000     0.494440000000    -0.0748672  
C606     C      0.854360000000     0.882540000000     0.479660000000    -0.00624664 
C607     C      0.878060000000     0.675430000000     0.043860000000    -0.00103142 
C608     C      0.890300000000     0.686440000000     0.509710000000    -0.0755743  
C609     C      0.873530000000     0.672800000000     0.478690000000    -0.0022986  
C610     C      0.847230000000     0.646000000000     0.481760000000    -0.00121872 
C611     C      0.836620000000     0.633350000000     0.015880000000    -0.0754875  
C612     C      0.850980000000     0.649430000000     0.046940000000    -0.00252819 
C613     C      0.646920000000     0.847470000000     0.480730000000    -0.00275229 
C614     C      0.633750000000     0.835680000000     0.014250000000    -0.07254    
C615     C      0.649450000000     0.849170000000     0.045970000000    -0.00360425 
C616     C      0.675580000000     0.876340000000     0.044180000000    -0.00229377 
C617     C      0.687260000000     0.889610000000     0.510660000000    -0.0731508  
C618     C      0.673890000000     0.873810000000     0.478940000000    -0.00305711 
C619     C      0.599640000000     0.627850000000     0.016890000000    -0.00516675 
C620     C      0.606700000000     0.662160000000     0.031460000000    -0.0750998  
C621     C      0.640680000000     0.668920000000     0.046740000000    -0.00616914 
C622     C      0.666820000000     0.641780000000     0.047870000000    -0.00427154 
C623     C      0.659460000000     0.607310000000     0.033800000000    -0.0771148  
C624     C      0.625660000000     0.600770000000     0.018090000000    -0.0036159  
C625     C      0.878040000000     0.981420000000     0.349820000000    -0.000597505
C626     C      0.890300000000     0.515570000000     0.338840000000    -0.0755811  
C627     C      0.873520000000     0.546580000000     0.352460000000    -0.00229747 
C628     C      0.847220000000     0.543510000000     0.379260000000    -0.00119603 
C629     C      0.836620000000     0.009390000000     0.391920000000    -0.0755119  
C630     C      0.850970000000     0.978340000000     0.375820000000    -0.00212525 
C631     C      0.625660000000     0.007180000000     0.424500000000    -0.00394875 
C632     C      0.659470000000     0.991470000000     0.417960000000    -0.0767882  
C633     C      0.666820000000     0.977410000000     0.383490000000    -0.00418614 
C634     C      0.640680000000     0.978530000000     0.356350000000    -0.00616236 
C635     C      0.606700000000     0.993810000000     0.363110000000    -0.0747286  
C636     C      0.599640000000     0.008380000000     0.397420000000    -0.00551307 
C637     C      0.673900000000     0.546330000000     0.151480000000    -0.00304081 
C638     C      0.687260000000     0.514610000000     0.135660000000    -0.0732061  
C639     C      0.675590000000     0.481090000000     0.148940000000    -0.00230086 
C640     C      0.649460000000     0.979310000000     0.176110000000    -0.0030817  
C641     C      0.633750000000     0.011020000000     0.189600000000    -0.072748   
C642     C      0.646930000000     0.044550000000     0.177810000000    -0.00267147 
C643     C      0.922720000000     0.017830000000     0.127340000000    -0.00377841 
C644     C      0.916060000000     0.533050000000     0.161390000000    -0.0765864  
C645     C      0.881480000000     0.546680000000     0.168900000000    -0.00442687 
C646     C      0.854360000000     0.545610000000     0.142730000000    -0.00626419 
C647     C      0.861220000000     0.530830000000     0.108510000000    -0.0749101  
C648     C      0.895650000000     0.016700000000     0.101250000000    -0.00512968 
C649     C      0.013120000000     0.604230000000     0.394420000000    -0.00561368 
C650     C      0.996450000000     0.610360000000     0.360920000000    -0.0742049  
C651     C      0.480730000000     0.644250000000     0.354310000000    -0.00595247 
C652     C      0.480730000000     0.670960000000     0.381020000000    -0.00593483 
C653     C      0.996450000000     0.664350000000     0.414920000000    -0.0743314  
C654     C      0.013120000000     0.630850000000     0.421040000000    -0.00552088 
C655     C      0.546170000000     0.873950000000     0.351080000000    -0.00250534 
C656     C      0.514910000000     0.891290000000     0.338760000000    -0.074516   
C657     C      0.481080000000     0.878830000000     0.350340000000    -0.00144734 
C658     C      0.978600000000     0.850900000000     0.375560000000    -0.00278579 
C659     C      0.009960000000     0.835830000000     0.390390000000    -0.0739732  
C660     C      0.043730000000     0.846790000000     0.377160000000    -0.00207136 
C661     C      0.523970000000     0.927720000000     0.124140000000    -0.00369021 
C662     C      0.536700000000     0.920060000000     0.159010000000    -0.0769771  
C663     C      0.549610000000     0.885250000000     0.166650000000    -0.00472489 
C664     C      0.549610000000     0.858620000000     0.140020000000    -0.00473274 
C665     C      0.536700000000     0.866260000000     0.105210000000    -0.0769811  
C666     C      0.523970000000     0.901130000000     0.097550000000    -0.00372415 
C667     C      0.043720000000     0.648100000000     0.178490000000    -0.00211229 
C668     C      0.009950000000     0.634880000000     0.189440000000    -0.0739409  
C669     C      0.978600000000     0.649710000000     0.174370000000    -0.00280868 
C670     C      0.481080000000     0.674930000000     0.146440000000    -0.00148987 
C671     C      0.514910000000     0.686520000000     0.133980000000    -0.0745243  
C672     C      0.546170000000     0.674180000000     0.151320000000    -0.00258208 
C673     C      0.007620000000     0.601080000000     0.710230000000     0.337317   
C674     C      0.578040000000     0.993310000000     0.835360000000     0.338566   
C675     C      0.994160000000     0.580870000000     0.833950000000     0.336473   
C676     C      0.599700000000     0.008980000000     0.710120000000     0.334933   
C677     C      0.536240000000     0.948240000000     0.687200000000     0.34489    
C678     C      0.924240000000     0.518720000000     0.818610000000     0.342819   
C679     C      0.945060000000     0.534670000000     0.688800000000     0.343572   
C680     C      0.517660000000     0.925490000000     0.818680000000     0.340807   
C681     C      0.517660000000     0.706590000000     0.599780000000     0.34073    
C682     C      0.945060000000     0.836470000000     0.990600000000     0.344189   
C683     C      0.536230000000     0.838070000000     0.577030000000     0.344977   
C684     C      0.924240000000     0.706670000000     0.006550000000     0.342409   
C685     C      0.994160000000     0.691320000000     0.944400000000     0.336461   
C686     C      0.599700000000     0.815160000000     0.516290000000     0.335136   
C687     C      0.578040000000     0.689910000000     0.531970000000     0.337936   
C688     C      0.007620000000     0.815040000000     0.924190000000     0.337165   
C689     C      0.833410000000     0.531440000000     0.579850000000     0.337537   
C690     C      0.707670000000     0.923760000000     0.008670000000     0.335999   
C691     C      0.707670000000     0.516610000000     0.601510000000     0.336537   
C692     C      0.833410000000     0.945420000000     0.993830000000     0.337993   
C693     C      0.816240000000     0.006420000000     0.925800000000     0.341725   
C694     C      0.686770000000     0.578280000000     0.535360000000     0.344334   
C695     C      0.816250000000     0.599470000000     0.518850000000     0.342139   
C696     C      0.686770000000     0.989910000000     0.946990000000     0.344822   
C697     C      0.881480000000     0.856370000000     0.978590000000    -0.00443358 
C698     C      0.916060000000     0.863880000000     0.992220000000    -0.0762398  
C699     C      0.922720000000     0.897930000000     0.007440000000    -0.00415944 
C700     C      0.895650000000     0.924010000000     0.008580000000    -0.00537516 
C701     C      0.861220000000     0.916770000000     0.994440000000    -0.0745528  
C702     C      0.854360000000     0.882540000000     0.979660000000    -0.00622759 
C703     C      0.878040000000     0.675450000000     0.543860000000    -0.00100131 
C704     C      0.890300000000     0.686440000000     0.009710000000    -0.0759162  
C705     C      0.873520000000     0.672810000000     0.978690000000    -0.0019532  
C706     C      0.847220000000     0.646010000000     0.981760000000    -0.000765202
C707     C      0.836620000000     0.633350000000     0.515890000000    -0.0751382  
C708     C      0.850970000000     0.649450000000     0.546940000000    -0.00253779 
C709     C      0.646940000000     0.847450000000     0.980720000000    -0.00242771 
C710     C      0.633750000000     0.835680000000     0.514260000000    -0.0722504  
C711     C      0.649470000000     0.849160000000     0.545970000000    -0.00357337 
C712     C      0.675600000000     0.876320000000     0.544180000000    -0.00230516 
C713     C      0.687260000000     0.889610000000     0.010650000000    -0.0735497  
C714     C      0.673910000000     0.873790000000     0.978940000000    -0.00260853 
C715     C      0.599640000000     0.627850000000     0.516890000000    -0.00513027 
C716     C      0.606700000000     0.662160000000     0.531460000000    -0.0750541  
C717     C      0.640680000000     0.668920000000     0.546740000000    -0.0061506  
C718     C      0.666820000000     0.641780000000     0.547870000000    -0.00424851 
C719     C      0.659460000000     0.607310000000     0.533800000000    -0.0770731  
C720     C      0.625660000000     0.600770000000     0.518090000000    -0.00358484 
C721     C      0.878040000000     0.981420000000     0.849820000000    -0.000587912
C722     C      0.890300000000     0.515560000000     0.838840000000    -0.0755593  
C723     C      0.873520000000     0.546580000000     0.852460000000    -0.00232867 
C724     C      0.847220000000     0.543510000000     0.879260000000    -0.0011545  
C725     C      0.836620000000     0.009390000000     0.891920000000    -0.0754786  
C726     C      0.850970000000     0.978340000000     0.875820000000    -0.00211788 
C727     C      0.625660000000     0.007180000000     0.924500000000    -0.00394362 
C728     C      0.659470000000     0.991470000000     0.917960000000    -0.0767275  
C729     C      0.666820000000     0.977410000000     0.883490000000    -0.00419456 
C730     C      0.640680000000     0.978530000000     0.856350000000    -0.00614665 
C731     C      0.606700000000     0.993810000000     0.863110000000    -0.0747296  
C732     C      0.599640000000     0.008380000000     0.897420000000    -0.00547761 
C733     C      0.673900000000     0.546330000000     0.651470000000    -0.0030766  
C734     C      0.687260000000     0.514610000000     0.635670000000    -0.0731326  
C735     C      0.675590000000     0.481090000000     0.648940000000    -0.00232181 
C736     C      0.649460000000     0.979310000000     0.676110000000    -0.00312497 
C737     C      0.633750000000     0.011020000000     0.689600000000    -0.0727283  
C738     C      0.646930000000     0.044550000000     0.677810000000    -0.00268142 
C739     C      0.922720000000     0.017830000000     0.627340000000    -0.00383454 
C740     C      0.916060000000     0.533050000000     0.661390000000    -0.0765787  
C741     C      0.881480000000     0.546680000000     0.668900000000    -0.00442889 
C742     C      0.854360000000     0.545610000000     0.642730000000    -0.00625894 
C743     C      0.861220000000     0.530830000000     0.608510000000    -0.0749087  
C744     C      0.895650000000     0.016700000000     0.601260000000    -0.00499809 
C745     C      0.013120000000     0.604230000000     0.894420000000    -0.00556508 
C746     C      0.996450000000     0.610360000000     0.860920000000    -0.0742175  
C747     C      0.480730000000     0.644250000000     0.854310000000    -0.0059356  
C748     C      0.480730000000     0.670960000000     0.881020000000    -0.00594404 
C749     C      0.996450000000     0.664350000000     0.914920000000    -0.0742196  
C750     C      0.013120000000     0.630850000000     0.921040000000    -0.00554064 
C751     C      0.546170000000     0.873950000000     0.851080000000    -0.00247055 
C752     C      0.514910000000     0.891290000000     0.838750000000    -0.0745667  
C753     C      0.481080000000     0.878830000000     0.850340000000    -0.00141346 
C754     C      0.978600000000     0.850900000000     0.875560000000    -0.00278154 
C755     C      0.009960000000     0.835830000000     0.890390000000    -0.0739499  
C756     C      0.043730000000     0.846790000000     0.877160000000    -0.00206969 
C757     C      0.523970000000     0.927720000000     0.624140000000    -0.00374141 
C758     C      0.536700000000     0.920060000000     0.659020000000    -0.0770022  
C759     C      0.549610000000     0.885250000000     0.666650000000    -0.00472658 
C760     C      0.549600000000     0.858620000000     0.640020000000    -0.00467324 
C761     C      0.536700000000     0.866260000000     0.605210000000    -0.0770794  
C762     C      0.523970000000     0.901130000000     0.597560000000    -0.00361604 
C763     C      0.043720000000     0.648100000000     0.678490000000    -0.00210619 
C764     C      0.009950000000     0.634880000000     0.689440000000    -0.0740336  
C765     C      0.978600000000     0.649710000000     0.674370000000    -0.00276872 
C766     C      0.481080000000     0.674930000000     0.646440000000    -0.00151813 
C767     C      0.514910000000     0.686510000000     0.633980000000    -0.0744934  
C768     C      0.546160000000     0.674180000000     0.651320000000    -0.00255415 
Co1      Co     0.521310000000     0.022920000000     0.211980000000     0.847407   
Co2      Co     0.002130000000     0.503660000000     0.313430000000     0.849019   
Co3      Co     0.472180000000     0.050710000000     0.262510000000     0.815467   
Co4      Co     0.049140000000     0.473740000000     0.262440000000     0.81232    
Co5      Co     0.002130000000     0.211850000000     0.021610000000     0.848461   
Co6      Co     0.521310000000     0.313290000000     0.502350000000     0.847765   
Co7      Co     0.049140000000     0.262830000000     0.051530000000     0.812251   
Co8      Co     0.472180000000     0.262760000000     0.474560000000     0.815472   
Co9      Co     0.311230000000     0.021530000000     0.003740000000     0.850694   
Co10     Co     0.209770000000     0.502130000000     0.523140000000     0.849069   
Co11     Co     0.260590000000     0.051180000000     0.051110000000     0.814241   
Co12     Co     0.260590000000     0.474170000000     0.474090000000     0.814223   
Co13     Co     0.521310000000     0.022920000000     0.711980000000     0.847364   
Co14     Co     0.002130000000     0.503660000000     0.813430000000     0.849023   
Co15     Co     0.472180000000     0.050710000000     0.762510000000     0.815472   
Co16     Co     0.049140000000     0.473740000000     0.762440000000     0.812312   
Co17     Co     0.002130000000     0.211850000000     0.521610000000     0.848889   
Co18     Co     0.521310000000     0.313290000000     0.002350000000     0.847126   
Co19     Co     0.049140000000     0.262830000000     0.551530000000     0.812275   
Co20     Co     0.472180000000     0.262760000000     0.974560000000     0.815989   
Co21     Co     0.311230000000     0.021530000000     0.503740000000     0.851397   
Co22     Co     0.209770000000     0.502130000000     0.023140000000     0.848642   
Co23     Co     0.260590000000     0.051180000000     0.551110000000     0.81424    
Co24     Co     0.260590000000     0.474170000000     0.974090000000     0.81476    
Co25     Co     0.521310000000     0.522920000000     0.211980000000     0.84779    
Co26     Co     0.002130000000     0.003660000000     0.313430000000     0.848343   
Co27     Co     0.472180000000     0.550710000000     0.262510000000     0.815539   
Co28     Co     0.049140000000     0.973740000000     0.262440000000     0.812829   
Co29     Co     0.002130000000     0.711850000000     0.021610000000     0.848467   
Co30     Co     0.521310000000     0.813290000000     0.502350000000     0.847731   
Co31     Co     0.049140000000     0.762830000000     0.051530000000     0.81225    
Co32     Co     0.472180000000     0.762770000000     0.474560000000     0.815476   
Co33     Co     0.311230000000     0.521530000000     0.003740000000     0.851154   
Co34     Co     0.209770000000     0.002130000000     0.523140000000     0.848453   
Co35     Co     0.260590000000     0.551180000000     0.051110000000     0.814253   
Co36     Co     0.260590000000     0.974170000000     0.474090000000     0.814736   
Co37     Co     0.521310000000     0.522920000000     0.711980000000     0.84783    
Co38     Co     0.002130000000     0.003660000000     0.813430000000     0.848354   
Co39     Co     0.472180000000     0.550710000000     0.762510000000     0.81552    
Co40     Co     0.049140000000     0.973740000000     0.762440000000     0.812844   
Co41     Co     0.002130000000     0.711850000000     0.521610000000     0.848989   
Co42     Co     0.521310000000     0.813290000000     0.002350000000     0.847093   
Co43     Co     0.049140000000     0.762830000000     0.551530000000     0.812268   
Co44     Co     0.472180000000     0.762770000000     0.974560000000     0.815983   
Co45     Co     0.311230000000     0.521530000000     0.503740000000     0.851807   
Co46     Co     0.209770000000     0.002130000000     0.023140000000     0.848019   
Co47     Co     0.260590000000     0.551180000000     0.551110000000     0.814251   
Co48     Co     0.260590000000     0.974170000000     0.974090000000     0.815267   
Co49     Co     0.021320000000     0.022920000000     0.211980000000     0.846944   
Co50     Co     0.502130000000     0.503660000000     0.313430000000     0.84968    
Co51     Co     0.972180000000     0.050710000000     0.262510000000     0.816008   
Co52     Co     0.549150000000     0.473740000000     0.262440000000     0.812388   
Co53     Co     0.502130000000     0.211850000000     0.021610000000     0.849106   
Co54     Co     0.021310000000     0.313290000000     0.502350000000     0.847346   
Co55     Co     0.549140000000     0.262830000000     0.051530000000     0.812245   
Co56     Co     0.972180000000     0.262760000000     0.474560000000     0.815962   
Co57     Co     0.811230000000     0.021530000000     0.003740000000     0.850697   
Co58     Co     0.709770000000     0.502130000000     0.523140000000     0.849063   
Co59     Co     0.760590000000     0.051180000000     0.051110000000     0.81423    
Co60     Co     0.760590000000     0.474170000000     0.474090000000     0.814216   
Co61     Co     0.021310000000     0.022920000000     0.711980000000     0.846944   
Co62     Co     0.502130000000     0.503660000000     0.813430000000     0.849668   
Co63     Co     0.972180000000     0.050710000000     0.762510000000     0.81597    
Co64     Co     0.549140000000     0.473740000000     0.762440000000     0.812309   
Co65     Co     0.502130000000     0.211850000000     0.521610000000     0.849527   
Co66     Co     0.021310000000     0.313290000000     0.002350000000     0.846708   
Co67     Co     0.549140000000     0.262830000000     0.551530000000     0.812271   
Co68     Co     0.972180000000     0.262760000000     0.974560000000     0.816485   
Co69     Co     0.811230000000     0.021540000000     0.503740000000     0.85144    
Co70     Co     0.709770000000     0.502130000000     0.023140000000     0.848626   
Co71     Co     0.760590000000     0.051180000000     0.551110000000     0.814204   
Co72     Co     0.760590000000     0.474170000000     0.974090000000     0.814765   
Co73     Co     0.021310000000     0.522920000000     0.211980000000     0.847365   
Co74     Co     0.502130000000     0.003660000000     0.313430000000     0.848996   
Co75     Co     0.972180000000     0.550710000000     0.262510000000     0.816041   
Co76     Co     0.549140000000     0.973740000000     0.262440000000     0.812852   
Co77     Co     0.502130000000     0.711850000000     0.021610000000     0.849112   
Co78     Co     0.021310000000     0.813290000000     0.502350000000     0.847314   
Co79     Co     0.549140000000     0.762830000000     0.051530000000     0.812246   
Co80     Co     0.972180000000     0.762770000000     0.474560000000     0.815978   
Co81     Co     0.811230000000     0.521530000000     0.003740000000     0.851156   
Co82     Co     0.709770000000     0.002130000000     0.523140000000     0.84846    
Co83     Co     0.760590000000     0.551180000000     0.051110000000     0.814247   
Co84     Co     0.760590000000     0.974170000000     0.474090000000     0.814767   
Co85     Co     0.021310000000     0.522920000000     0.711980000000     0.847411   
Co86     Co     0.502130000000     0.003660000000     0.813430000000     0.848999   
Co87     Co     0.972180000000     0.550710000000     0.762510000000     0.816018   
Co88     Co     0.549140000000     0.973740000000     0.762440000000     0.812853   
Co89     Co     0.502130000000     0.711850000000     0.521610000000     0.849563   
Co90     Co     0.021310000000     0.813290000000     0.002350000000     0.846675   
Co91     Co     0.549140000000     0.762830000000     0.551530000000     0.812267   
Co92     Co     0.972180000000     0.762770000000     0.974560000000     0.816482   
Co93     Co     0.811230000000     0.521530000000     0.503740000000     0.851809   
Co94     Co     0.709770000000     0.002130000000     0.023140000000     0.848023   
Co95     Co     0.760590000000     0.551180000000     0.551110000000     0.814244   
Co96     Co     0.760590000000     0.974170000000     0.974090000000     0.815262   
H1       H      0.375390000000     0.330380000000     0.466740000000     0.0515941  
H2       H      0.448940000000     0.404590000000     0.518410000000     0.0513585  
H3       H      0.401940000000     0.450050000000     0.520250000000     0.0521625  
H4       H      0.328190000000     0.376070000000     0.468480000000     0.0516672  
H5       H      0.390790000000     0.185540000000     0.068130000000     0.0454835  
H6       H      0.382840000000     0.180580000000     0.452110000000     0.047994   
H7       H      0.336600000000     0.133750000000     0.457460000000     0.0454708  
H8       H      0.343540000000     0.139760000000     0.073490000000     0.0480907  
H9       H      0.135010000000     0.337690000000     0.455900000000     0.0448516  
H10      H      0.139390000000     0.340970000000     0.072150000000     0.0490783  
H11      H      0.185280000000     0.388310000000     0.069010000000     0.0445677  
H12      H      0.182040000000     0.383920000000     0.452760000000     0.048733   
H13      H      0.073790000000     0.121660000000     0.004820000000     0.0518233  
H14      H      0.146980000000     0.195020000000     0.058260000000     0.0516086  
H15      H      0.192640000000     0.147750000000     0.060100000000     0.0513796  
H16      H      0.119150000000     0.074650000000     0.006740000000     0.0508479  
H17      H      0.390790000000     0.457140000000     0.339730000000     0.0455002  
H18      H      0.382850000000     0.073160000000     0.344690000000     0.0479855  
H19      H      0.336600000000     0.067820000000     0.391520000000     0.0454318  
H20      H      0.343540000000     0.451780000000     0.385510000000     0.0480988  
H21      H      0.119140000000     0.518520000000     0.450630000000     0.0509747  
H22      H      0.192640000000     0.465180000000     0.377520000000     0.0514046  
H23      H      0.146980000000     0.467020000000     0.330250000000     0.0516384  
H24      H      0.073790000000     0.520450000000     0.403620000000     0.0519258  
H25      H      0.182050000000     0.072510000000     0.141360000000     0.0487506  
H26      H      0.185300000000     0.956260000000     0.136990000000     0.0445821  
H27      H      0.139400000000     0.453130000000     0.184320000000     0.0490916  
H28      H      0.135030000000     0.569370000000     0.187600000000     0.0448559  
H29      H      0.448940000000     0.506860000000     0.120670000000     0.0513277  
H30      H      0.375390000000     0.058530000000     0.194900000000     0.0515542  
H31      H      0.328190000000     0.056780000000     0.149200000000     0.0516495  
H32      H      0.401940000000     0.505030000000     0.075220000000     0.0521454  
H33      H      0.525720000000     0.078580000000     0.400440000000     0.0511291  
H34      H      0.967700000000     0.149910000000     0.328800000000     0.0518062  
H35      H      0.967700000000     0.196470000000     0.375360000000     0.0518033  
H36      H      0.525720000000     0.124830000000     0.446690000000     0.0511319  
H37      H      0.072540000000     0.383350000000     0.342810000000     0.0481461  
H38      H      0.956620000000     0.391910000000     0.341230000000     0.0456981  
H39      H      0.452300000000     0.343330000000     0.385730000000     0.0488447  
H40      H      0.568280000000     0.335760000000     0.388490000000     0.0444641  
H41      H      0.013790000000     0.454230000000     0.117320000000     0.0520037  
H42      H      0.059670000000     0.378480000000     0.193220000000     0.0514726  
H43      H      0.059670000000     0.332050000000     0.146790000000     0.0514663  
H44      H      0.013790000000     0.407950000000     0.071040000000     0.0519568  
H45      H      0.568280000000     0.136780000000     0.189510000000     0.0444237  
H46      H      0.452290000000     0.139540000000     0.181930000000     0.0488052  
H47      H      0.956610000000     0.184040000000     0.133360000000     0.045681   
H48      H      0.072540000000     0.182460000000     0.141930000000     0.0481466  
H49      H      0.375390000000     0.330380000000     0.966740000000     0.0516333  
H50      H      0.448940000000     0.404590000000     0.018410000000     0.0513716  
H51      H      0.401940000000     0.450050000000     0.020250000000     0.0521738  
H52      H      0.328190000000     0.376070000000     0.968480000000     0.0517082  
H53      H      0.390770000000     0.185570000000     0.568140000000     0.0454876  
H54      H      0.382820000000     0.180600000000     0.952110000000     0.047963   
H55      H      0.336570000000     0.133780000000     0.957450000000     0.0454233  
H56      H      0.343510000000     0.139790000000     0.573490000000     0.0481061  
H57      H      0.135040000000     0.337660000000     0.955900000000     0.0448454  
H58      H      0.139420000000     0.340940000000     0.572150000000     0.0490822  
H59      H      0.185320000000     0.388280000000     0.569010000000     0.0445762  
H60      H      0.182070000000     0.383890000000     0.952760000000     0.0486825  
H61      H      0.073790000000     0.121660000000     0.504810000000     0.0519149  
H62      H      0.146980000000     0.195020000000     0.558260000000     0.0516271  
H63      H      0.192630000000     0.147750000000     0.560100000000     0.0514157  
H64      H      0.119150000000     0.074650000000     0.506740000000     0.0509541  
H65      H      0.390790000000     0.457140000000     0.839730000000     0.0455026  
H66      H      0.382840000000     0.073160000000     0.844690000000     0.0479889  
H67      H      0.336600000000     0.067820000000     0.891510000000     0.045462   
H68      H      0.343540000000     0.451780000000     0.885510000000     0.0481026  
H69      H      0.119140000000     0.518520000000     0.950630000000     0.0510845  
H70      H      0.192640000000     0.465180000000     0.877520000000     0.0514133  
H71      H      0.146980000000     0.467020000000     0.830250000000     0.0516364  
H72      H      0.073790000000     0.520450000000     0.903620000000     0.0519626  
H73      H      0.182050000000     0.072510000000     0.641360000000     0.0487471  
H74      H      0.185300000000     0.956260000000     0.636990000000     0.0445849  
H75      H      0.139400000000     0.453130000000     0.684320000000     0.049089   
H76      H      0.135030000000     0.569370000000     0.687600000000     0.044848   
H77      H      0.448940000000     0.506860000000     0.620680000000     0.0513535  
H78      H      0.375390000000     0.058520000000     0.694900000000     0.0515604  
H79      H      0.328190000000     0.056780000000     0.649200000000     0.0516397  
H80      H      0.401940000000     0.505030000000     0.575220000000     0.0521772  
H81      H      0.525720000000     0.078580000000     0.900440000000     0.0511627  
H82      H      0.967700000000     0.149910000000     0.828800000000     0.051801   
H83      H      0.967700000000     0.196470000000     0.875360000000     0.051815   
H84      H      0.525720000000     0.124830000000     0.946690000000     0.0512426  
H85      H      0.072540000000     0.383350000000     0.842810000000     0.0481516  
H86      H      0.956620000000     0.391910000000     0.841230000000     0.0457021  
H87      H      0.452300000000     0.343330000000     0.885730000000     0.0488509  
H88      H      0.568280000000     0.335760000000     0.888490000000     0.0444869  
H89      H      0.013790000000     0.454230000000     0.617320000000     0.052021   
H90      H      0.059670000000     0.378480000000     0.693220000000     0.0514669  
H91      H      0.059660000000     0.332050000000     0.646790000000     0.0514605  
H92      H      0.013790000000     0.407950000000     0.571040000000     0.0519883  
H93      H      0.568280000000     0.136780000000     0.689510000000     0.0444344  
H94      H      0.452290000000     0.139540000000     0.681930000000     0.0488115  
H95      H      0.956610000000     0.184040000000     0.633360000000     0.0456839  
H96      H      0.072540000000     0.182460000000     0.641920000000     0.0481184  
H97      H      0.375390000000     0.830380000000     0.466740000000     0.0515907  
H98      H      0.448940000000     0.904600000000     0.518410000000     0.051381   
H99      H      0.401940000000     0.950050000000     0.520240000000     0.0522845  
H100     H      0.328190000000     0.876070000000     0.468480000000     0.0516783  
H101     H      0.390790000000     0.685540000000     0.068130000000     0.0454895  
H102     H      0.382840000000     0.680580000000     0.452110000000     0.0479964  
H103     H      0.336600000000     0.633750000000     0.457460000000     0.0454807  
H104     H      0.343540000000     0.639760000000     0.073490000000     0.0480884  
H105     H      0.135010000000     0.837690000000     0.455900000000     0.0448541  
H106     H      0.139390000000     0.840970000000     0.072150000000     0.0490763  
H107     H      0.185280000000     0.888310000000     0.069010000000     0.0445939  
H108     H      0.182040000000     0.883920000000     0.452760000000     0.0487432  
H109     H      0.073790000000     0.621660000000     0.004820000000     0.0518378  
H110     H      0.146980000000     0.695020000000     0.058260000000     0.0516071  
H111     H      0.192640000000     0.647750000000     0.060100000000     0.0513798  
H112     H      0.119150000000     0.574650000000     0.006740000000     0.0508813  
H113     H      0.390770000000     0.957140000000     0.339700000000     0.0454699  
H114     H      0.382820000000     0.573160000000     0.344670000000     0.0479907  
H115     H      0.336570000000     0.567820000000     0.391490000000     0.0454588  
H116     H      0.343510000000     0.951780000000     0.385480000000     0.0480605  
H117     H      0.119150000000     0.018520000000     0.450630000000     0.0510006  
H118     H      0.192640000000     0.965180000000     0.377520000000     0.0514471  
H119     H      0.146980000000     0.967020000000     0.330250000000     0.0516813  
H120     H      0.073790000000     0.020450000000     0.403620000000     0.0519397  
H121     H      0.182060000000     0.572510000000     0.141370000000     0.0487218  
H122     H      0.185290000000     0.456260000000     0.136980000000     0.0445715  
H123     H      0.139410000000     0.953120000000     0.184330000000     0.0489996  
H124     H      0.135020000000     0.069380000000     0.187590000000     0.0447998  
H125     H      0.448940000000     0.006860000000     0.120670000000     0.0512229  
H126     H      0.375390000000     0.558530000000     0.194900000000     0.051577   
H127     H      0.328190000000     0.556780000000     0.149200000000     0.0516732  
H128     H      0.401940000000     0.005030000000     0.075220000000     0.0520466  
H129     H      0.525720000000     0.578580000000     0.400440000000     0.0511586  
H130     H      0.967700000000     0.649910000000     0.328800000000     0.0518111  
H131     H      0.967700000000     0.696470000000     0.375360000000     0.0517957  
H132     H      0.525720000000     0.624830000000     0.446690000000     0.0511456  
H133     H      0.072540000000     0.883350000000     0.342810000000     0.0481565  
H134     H      0.956620000000     0.891910000000     0.341230000000     0.0457262  
H135     H      0.452300000000     0.843340000000     0.385730000000     0.0488456  
H136     H      0.568280000000     0.835760000000     0.388490000000     0.044464   
H137     H      0.013790000000     0.954230000000     0.117320000000     0.0521049  
H138     H      0.059670000000     0.878480000000     0.193220000000     0.0514785  
H139     H      0.059670000000     0.832050000000     0.146790000000     0.0514689  
H140     H      0.013790000000     0.907950000000     0.071040000000     0.0520163  
H141     H      0.568280000000     0.636780000000     0.189510000000     0.0444423  
H142     H      0.452290000000     0.639540000000     0.181930000000     0.0488061  
H143     H      0.956610000000     0.684040000000     0.133360000000     0.0456795  
H144     H      0.072540000000     0.682450000000     0.141920000000     0.0481446  
H145     H      0.375390000000     0.830380000000     0.966740000000     0.0516316  
H146     H      0.448940000000     0.904590000000     0.018410000000     0.0514082  
H147     H      0.401940000000     0.950050000000     0.020250000000     0.0522844  
H148     H      0.328190000000     0.876070000000     0.968480000000     0.0517172  
H149     H      0.390770000000     0.685570000000     0.568140000000     0.0454875  
H150     H      0.382820000000     0.680600000000     0.952110000000     0.0479722  
H151     H      0.336570000000     0.633780000000     0.957450000000     0.0454284  
H152     H      0.343510000000     0.639790000000     0.573490000000     0.0481031  
H153     H      0.135040000000     0.837650000000     0.955900000000     0.0448176  
H154     H      0.139420000000     0.840940000000     0.572150000000     0.0490835  
H155     H      0.185310000000     0.888280000000     0.569010000000     0.0446058  
H156     H      0.182070000000     0.883890000000     0.952760000000     0.048704   
H157     H      0.073790000000     0.621660000000     0.504820000000     0.0519385  
H158     H      0.146980000000     0.695020000000     0.558260000000     0.0516272  
H159     H      0.192630000000     0.647750000000     0.560100000000     0.0514148  
H160     H      0.119150000000     0.574650000000     0.506740000000     0.0509843  
H161     H      0.390770000000     0.957140000000     0.839700000000     0.0454724  
H162     H      0.382820000000     0.573160000000     0.844670000000     0.0480085  
H163     H      0.336570000000     0.567820000000     0.891490000000     0.0454688  
H164     H      0.343510000000     0.951780000000     0.885480000000     0.048072   
H165     H      0.119150000000     0.018520000000     0.950630000000     0.0511069  
H166     H      0.192640000000     0.965180000000     0.877520000000     0.0514483  
H167     H      0.146980000000     0.967020000000     0.830250000000     0.051699   
H168     H      0.073790000000     0.020450000000     0.903620000000     0.0519803  
H169     H      0.182060000000     0.572510000000     0.641370000000     0.0487311  
H170     H      0.185290000000     0.456260000000     0.636980000000     0.04459    
H171     H      0.139410000000     0.953130000000     0.684330000000     0.0490233  
H172     H      0.135020000000     0.069380000000     0.687590000000     0.044803   
H173     H      0.448940000000     0.006860000000     0.620670000000     0.0512467  
H174     H      0.375390000000     0.558530000000     0.694900000000     0.0515769  
H175     H      0.328190000000     0.556780000000     0.649200000000     0.051673   
H176     H      0.401940000000     0.005030000000     0.575220000000     0.0520493  
H177     H      0.525720000000     0.578580000000     0.900440000000     0.0511922  
H178     H      0.967700000000     0.649910000000     0.828800000000     0.0518035  
H179     H      0.967700000000     0.696470000000     0.875360000000     0.0518104  
H180     H      0.525720000000     0.624830000000     0.946690000000     0.0512546  
H181     H      0.072540000000     0.883350000000     0.842810000000     0.0481618  
H182     H      0.956620000000     0.891910000000     0.841230000000     0.0457293  
H183     H      0.452300000000     0.843340000000     0.885730000000     0.0488552  
H184     H      0.568280000000     0.835760000000     0.888490000000     0.0444895  
H185     H      0.013790000000     0.954230000000     0.617320000000     0.0521303  
H186     H      0.059670000000     0.878480000000     0.693220000000     0.051476   
H187     H      0.059660000000     0.832050000000     0.646790000000     0.0514589  
H188     H      0.013790000000     0.907950000000     0.571040000000     0.0520284  
H189     H      0.568280000000     0.636780000000     0.689510000000     0.0444285  
H190     H      0.452290000000     0.639540000000     0.681930000000     0.0487974  
H191     H      0.956610000000     0.684040000000     0.633360000000     0.0456881  
H192     H      0.072540000000     0.682450000000     0.641920000000     0.0481237  
H193     H      0.875390000000     0.330380000000     0.466740000000     0.0516023  
H194     H      0.948940000000     0.404590000000     0.518410000000     0.0514584  
H195     H      0.901940000000     0.450050000000     0.520250000000     0.0521954  
H196     H      0.828190000000     0.376070000000     0.468480000000     0.0516652  
H197     H      0.890790000000     0.185540000000     0.068130000000     0.045506   
H198     H      0.882850000000     0.180580000000     0.452110000000     0.0480035  
H199     H      0.836600000000     0.133760000000     0.457460000000     0.0454743  
H200     H      0.843540000000     0.139760000000     0.073490000000     0.048095   
H201     H      0.635010000000     0.337690000000     0.455900000000     0.044858   
H202     H      0.639390000000     0.340970000000     0.072150000000     0.049078   
H203     H      0.685280000000     0.388310000000     0.069010000000     0.0445695  
H204     H      0.682040000000     0.383920000000     0.452760000000     0.0487341  
H205     H      0.573800000000     0.121660000000     0.004820000000     0.051868   
H206     H      0.646980000000     0.195020000000     0.058260000000     0.0516111  
H207     H      0.692640000000     0.147750000000     0.060100000000     0.0513765  
H208     H      0.619150000000     0.074650000000     0.006740000000     0.0508572  
H209     H      0.890790000000     0.457140000000     0.339730000000     0.0455249  
H210     H      0.882850000000     0.073160000000     0.344690000000     0.0479932  
H211     H      0.836600000000     0.067820000000     0.391520000000     0.0454394  
H212     H      0.843540000000     0.451780000000     0.385510000000     0.0481021  
H213     H      0.619140000000     0.518520000000     0.450630000000     0.0509925  
H214     H      0.692640000000     0.465180000000     0.377520000000     0.0514143  
H215     H      0.646980000000     0.467020000000     0.330250000000     0.0516305  
H216     H      0.573790000000     0.520450000000     0.403620000000     0.0519546  
H217     H      0.682050000000     0.072510000000     0.141360000000     0.048744   
H218     H      0.685300000000     0.956260000000     0.136990000000     0.0445784  
H219     H      0.639400000000     0.453130000000     0.184320000000     0.0490855  
H220     H      0.635030000000     0.569370000000     0.187600000000     0.0448543  
H221     H      0.948940000000     0.506860000000     0.120670000000     0.0514275  
H222     H      0.875390000000     0.058530000000     0.194900000000     0.0515546  
H223     H      0.828190000000     0.056780000000     0.149200000000     0.0516515  
H224     H      0.901940000000     0.505030000000     0.075220000000     0.0521779  
H225     H      0.025720000000     0.078580000000     0.400440000000     0.051148   
H226     H      0.467700000000     0.149910000000     0.328800000000     0.0517647  
H227     H      0.467700000000     0.196470000000     0.375360000000     0.0517612  
H228     H      0.025720000000     0.124830000000     0.446690000000     0.0511509  
H229     H      0.572550000000     0.383350000000     0.342820000000     0.0481236  
H230     H      0.456610000000     0.391910000000     0.341230000000     0.045686   
H231     H      0.952290000000     0.343340000000     0.385720000000     0.0487775  
H232     H      0.068290000000     0.335760000000     0.388490000000     0.0444133  
H233     H      0.513790000000     0.454230000000     0.117320000000     0.0520911  
H234     H      0.559670000000     0.378480000000     0.193220000000     0.0514966  
H235     H      0.559670000000     0.332050000000     0.146790000000     0.0514912  
H236     H      0.513790000000     0.407950000000     0.071040000000     0.0520444  
H237     H      0.068280000000     0.136780000000     0.189510000000     0.0444063  
H238     H      0.952290000000     0.139540000000     0.181930000000     0.0487671  
H239     H      0.456610000000     0.184040000000     0.133360000000     0.0456981  
H240     H      0.572540000000     0.182450000000     0.141930000000     0.0481581  
H241     H      0.875390000000     0.330380000000     0.966740000000     0.0516407  
H242     H      0.948940000000     0.404590000000     0.018410000000     0.0514696  
H243     H      0.901930000000     0.450050000000     0.020250000000     0.0522186  
H244     H      0.828190000000     0.376070000000     0.968480000000     0.051708   
H245     H      0.890770000000     0.185570000000     0.568140000000     0.0455093  
H246     H      0.882820000000     0.180600000000     0.952110000000     0.047972   
H247     H      0.836570000000     0.133780000000     0.957450000000     0.0454257  
H248     H      0.843510000000     0.139790000000     0.573490000000     0.0481094  
H249     H      0.635040000000     0.337660000000     0.955900000000     0.04485    
H250     H      0.639420000000     0.340940000000     0.572150000000     0.0490805  
H251     H      0.685320000000     0.388280000000     0.569010000000     0.0445762  
H252     H      0.682060000000     0.383890000000     0.952760000000     0.0486817  
H253     H      0.573800000000     0.121660000000     0.504810000000     0.0519611  
H254     H      0.646980000000     0.195020000000     0.558260000000     0.0516344  
H255     H      0.692640000000     0.147750000000     0.560100000000     0.0514006  
H256     H      0.619150000000     0.074650000000     0.506740000000     0.0509612  
H257     H      0.890790000000     0.457140000000     0.839730000000     0.0455276  
H258     H      0.882850000000     0.073160000000     0.844690000000     0.0479975  
H259     H      0.836600000000     0.067820000000     0.891510000000     0.0454652  
H260     H      0.843540000000     0.451780000000     0.885510000000     0.0481061  
H261     H      0.619140000000     0.518520000000     0.950630000000     0.0511012  
H262     H      0.692640000000     0.465180000000     0.877520000000     0.0514225  
H263     H      0.646980000000     0.467020000000     0.830250000000     0.0516305  
H264     H      0.573790000000     0.520450000000     0.903620000000     0.0519923  
H265     H      0.682050000000     0.072510000000     0.641360000000     0.048741   
H266     H      0.685300000000     0.956260000000     0.636990000000     0.0445814  
H267     H      0.639400000000     0.453130000000     0.684320000000     0.0490857  
H268     H      0.635030000000     0.569370000000     0.687600000000     0.0448533  
H269     H      0.948940000000     0.506860000000     0.620680000000     0.0514533  
H270     H      0.875390000000     0.058520000000     0.694900000000     0.0515686  
H271     H      0.828190000000     0.056780000000     0.649200000000     0.0516381  
H272     H      0.901940000000     0.505030000000     0.575220000000     0.0522101  
H273     H      0.025720000000     0.078580000000     0.900440000000     0.0511764  
H274     H      0.467700000000     0.149910000000     0.828800000000     0.0517627  
H275     H      0.467700000000     0.196470000000     0.875360000000     0.05177    
H276     H      0.025720000000     0.124830000000     0.946690000000     0.0512712  
H277     H      0.572550000000     0.383350000000     0.842810000000     0.0481322  
H278     H      0.456610000000     0.391910000000     0.841230000000     0.0456898  
H279     H      0.952290000000     0.343340000000     0.885720000000     0.0487838  
H280     H      0.068290000000     0.335760000000     0.888490000000     0.0444361  
H281     H      0.513790000000     0.454230000000     0.617320000000     0.0521097  
H282     H      0.559670000000     0.378480000000     0.693220000000     0.0514938  
H283     H      0.559670000000     0.332050000000     0.646790000000     0.0514776  
H284     H      0.513790000000     0.407950000000     0.571040000000     0.052075   
H285     H      0.068280000000     0.136780000000     0.689510000000     0.0444197  
H286     H      0.952290000000     0.139540000000     0.681930000000     0.0487749  
H287     H      0.456610000000     0.184040000000     0.633360000000     0.045702   
H288     H      0.572540000000     0.182450000000     0.641930000000     0.048131   
H289     H      0.875390000000     0.830380000000     0.466740000000     0.0515983  
H290     H      0.948940000000     0.904600000000     0.518410000000     0.0514804  
H291     H      0.901940000000     0.950050000000     0.520240000000     0.0523169  
H292     H      0.828190000000     0.876070000000     0.468480000000     0.051677   
H293     H      0.890790000000     0.685540000000     0.068130000000     0.0455145  
H294     H      0.882850000000     0.680580000000     0.452110000000     0.0480063  
H295     H      0.836600000000     0.633750000000     0.457460000000     0.0454849  
H296     H      0.843540000000     0.639760000000     0.073490000000     0.0480917  
H297     H      0.635010000000     0.837690000000     0.455900000000     0.0448615  
H298     H      0.639390000000     0.840970000000     0.072150000000     0.0490804  
H299     H      0.685280000000     0.888310000000     0.069010000000     0.0445907  
H300     H      0.682040000000     0.883920000000     0.452760000000     0.0487431  
H301     H      0.573790000000     0.621660000000     0.004820000000     0.0518677  
H302     H      0.646980000000     0.695020000000     0.058260000000     0.0516015  
H303     H      0.692640000000     0.647750000000     0.060100000000     0.0513889  
H304     H      0.619150000000     0.574650000000     0.006740000000     0.0508981  
H305     H      0.890770000000     0.957140000000     0.339700000000     0.0454922  
H306     H      0.882820000000     0.573160000000     0.344670000000     0.0480028  
H307     H      0.836570000000     0.567820000000     0.391490000000     0.045461   
H308     H      0.843510000000     0.951780000000     0.385480000000     0.0480652  
H309     H      0.619140000000     0.018520000000     0.450630000000     0.0510035  
H310     H      0.692640000000     0.965180000000     0.377520000000     0.0514452  
H311     H      0.646980000000     0.967020000000     0.330250000000     0.0516821  
H312     H      0.573790000000     0.020450000000     0.403620000000     0.0519744  
H313     H      0.682060000000     0.572510000000     0.141370000000     0.0487268  
H314     H      0.685290000000     0.456260000000     0.136980000000     0.0445788  
H315     H      0.639410000000     0.953120000000     0.184330000000     0.0490034  
H316     H      0.635020000000     0.069380000000     0.187590000000     0.0448091  
H317     H      0.948940000000     0.006860000000     0.120670000000     0.0513178  
H318     H      0.875390000000     0.558530000000     0.194900000000     0.0515848  
H319     H      0.828190000000     0.556780000000     0.149200000000     0.0516712  
H320     H      0.901940000000     0.005030000000     0.075220000000     0.0520833  
H321     H      0.025720000000     0.578580000000     0.400440000000     0.0511808  
H322     H      0.467700000000     0.649910000000     0.328800000000     0.0517659  
H323     H      0.467700000000     0.696470000000     0.375360000000     0.0517606  
H324     H      0.025720000000     0.624830000000     0.446690000000     0.0511535  
H325     H      0.572550000000     0.883350000000     0.342810000000     0.0481411  
H326     H      0.456610000000     0.891910000000     0.341230000000     0.0457155  
H327     H      0.952290000000     0.843340000000     0.385730000000     0.0487809  
H328     H      0.068290000000     0.835760000000     0.388490000000     0.0444147  
H329     H      0.513800000000     0.954240000000     0.117320000000     0.0521848  
H330     H      0.559670000000     0.878480000000     0.193220000000     0.0514974  
H331     H      0.559670000000     0.832050000000     0.146790000000     0.0514963  
H332     H      0.513790000000     0.907950000000     0.071040000000     0.0521084  
H333     H      0.068280000000     0.636780000000     0.189510000000     0.0444225  
H334     H      0.952290000000     0.639540000000     0.181930000000     0.0487657  
H335     H      0.456610000000     0.684040000000     0.133360000000     0.0456918  
H336     H      0.572540000000     0.682450000000     0.141930000000     0.0481522  
H337     H      0.875390000000     0.830380000000     0.966740000000     0.0516394  
H338     H      0.948940000000     0.904590000000     0.018410000000     0.0515081  
H339     H      0.901940000000     0.950050000000     0.020250000000     0.0523171  
H340     H      0.828190000000     0.876070000000     0.968480000000     0.0517152  
H341     H      0.890770000000     0.685570000000     0.568140000000     0.0455088  
H342     H      0.882820000000     0.680600000000     0.952110000000     0.0479821  
H343     H      0.836570000000     0.633780000000     0.957450000000     0.0454303  
H344     H      0.843510000000     0.639790000000     0.573490000000     0.0481073  
H345     H      0.635040000000     0.837650000000     0.955900000000     0.0448487  
H346     H      0.639420000000     0.840940000000     0.572150000000     0.0490846  
H347     H      0.685320000000     0.888280000000     0.569010000000     0.0445982  
H348     H      0.682070000000     0.883890000000     0.952760000000     0.0486949  
H349     H      0.573790000000     0.621660000000     0.504820000000     0.0519718  
H350     H      0.646980000000     0.695020000000     0.558260000000     0.0516262  
H351     H      0.692640000000     0.647750000000     0.560100000000     0.0514119  
H352     H      0.619150000000     0.574650000000     0.506740000000     0.0509989  
H353     H      0.890770000000     0.957140000000     0.839700000000     0.0454955  
H354     H      0.882820000000     0.573160000000     0.844670000000     0.0480183  
H355     H      0.836570000000     0.567820000000     0.891490000000     0.0454706  
H356     H      0.843510000000     0.951780000000     0.885490000000     0.0480755  
H357     H      0.619140000000     0.018520000000     0.950630000000     0.0511129  
H358     H      0.692640000000     0.965180000000     0.877520000000     0.0514541  
H359     H      0.646980000000     0.967020000000     0.830250000000     0.0516801  
H360     H      0.573790000000     0.020450000000     0.903620000000     0.0520111  
H361     H      0.682060000000     0.572510000000     0.641370000000     0.0487331  
H362     H      0.685290000000     0.456260000000     0.636980000000     0.0445953  
H363     H      0.639410000000     0.953130000000     0.684330000000     0.049023   
H364     H      0.635020000000     0.069380000000     0.687590000000     0.0448114  
H365     H      0.948940000000     0.006860000000     0.620670000000     0.0513478  
H366     H      0.875390000000     0.558530000000     0.694900000000     0.0515847  
H367     H      0.828190000000     0.556780000000     0.649200000000     0.0516709  
H368     H      0.901940000000     0.005030000000     0.575220000000     0.0520819  
H369     H      0.025720000000     0.578580000000     0.900440000000     0.0512118  
H370     H      0.467700000000     0.649910000000     0.828800000000     0.051762   
H371     H      0.467700000000     0.696470000000     0.875360000000     0.0517689  
H372     H      0.025720000000     0.624830000000     0.946690000000     0.0512742  
H373     H      0.572550000000     0.883350000000     0.842810000000     0.0481415  
H374     H      0.456610000000     0.891910000000     0.841230000000     0.0457143  
H375     H      0.952290000000     0.843340000000     0.885730000000     0.0487869  
H376     H      0.068290000000     0.835760000000     0.888490000000     0.0444374  
H377     H      0.513790000000     0.954230000000     0.617320000000     0.0522131  
H378     H      0.559670000000     0.878480000000     0.693220000000     0.0514983  
H379     H      0.559670000000     0.832050000000     0.646790000000     0.0514776  
H380     H      0.513790000000     0.907950000000     0.571040000000     0.0521176  
H381     H      0.068280000000     0.636780000000     0.689510000000     0.0444126  
H382     H      0.952290000000     0.639540000000     0.681930000000     0.0487605  
H383     H      0.456610000000     0.684040000000     0.633360000000     0.0457058  
H384     H      0.572540000000     0.682450000000     0.641930000000     0.0481364  
O1       O      0.528630000000     0.075550000000     0.200980000000    -0.358037   
O2       O      0.046900000000     0.504950000000     0.343940000000    -0.354864   
O3       O      0.480000000000     0.086920000000     0.303100000000    -0.353686   
O4       O      0.094850000000     0.483690000000     0.233110000000    -0.343876   
O5       O      0.005090000000     0.049470000000     0.342880000000    -0.354473   
O6       O      0.074060000000     0.029670000000     0.200330000000    -0.353013   
O7       O      0.084390000000     0.479790000000     0.304250000000    -0.352467   
O8       O      0.481880000000     0.096180000000     0.232660000000    -0.345385   
O9       O      0.525550000000     0.479870000000     0.178890000000    -0.347263   
O10      O      0.450300000000     0.498660000000     0.328400000000    -0.350782   
O11      O      0.437740000000     0.046260000000     0.220370000000    -0.347591   
O12      O      0.041620000000     0.429340000000     0.294200000000    -0.3417     
O13      O      0.997790000000     0.451630000000     0.328840000000    -0.346344   
O14      O      0.476840000000     0.024600000000     0.180170000000    -0.346929   
O15      O      0.046750000000     0.440440000000     0.219070000000    -0.346936   
O16      O      0.428050000000     0.043160000000     0.294580000000    -0.343041   
O17      O      0.001280000000     0.002850000000     0.258790000000    -0.588112   
O18      O      0.997790000000     0.196430000000     0.073640000000    -0.346289   
O19      O      0.476830000000     0.345100000000     0.500670000000    -0.346878   
O20      O      0.046750000000     0.306200000000     0.084830000000    -0.34692    
O21      O      0.428050000000     0.230690000000     0.482110000000    -0.343186   
O22      O      0.525550000000     0.346380000000     0.045400000000    -0.347247   
O23      O      0.450300000000     0.196870000000     0.026600000000    -0.35079    
O24      O      0.437740000000     0.304900000000     0.479000000000    -0.347582   
O25      O      0.041620000000     0.231070000000     0.095940000000    -0.341633   
O26      O      0.005090000000     0.182390000000     0.475800000000    -0.354447   
O27      O      0.074060000000     0.324940000000     0.495600000000    -0.352922   
O28      O      0.084390000000     0.221030000000     0.045480000000    -0.352459   
O29      O      0.481880000000     0.292610000000     0.429090000000    -0.345381   
O30      O      0.528630000000     0.324290000000     0.449720000000    -0.358055   
O31      O      0.046900000000     0.181330000000     0.020320000000    -0.35482    
O32      O      0.480000000000     0.222170000000     0.438350000000    -0.353732   
O33      O      0.094850000000     0.292160000000     0.041590000000    -0.343672   
O34      O      0.501280000000     0.266480000000     0.022420000000    -0.587979   
O35      O      0.341910000000     0.020090000000     0.048530000000    -0.355169   
O36      O      0.197900000000     0.449350000000     0.529460000000    -0.356501   
O37      O      0.230830000000     0.041720000000     0.096660000000    -0.345806   
O38      O      0.302290000000     0.438880000000     0.480500000000    -0.353338   
O39      O      0.197900000000     0.495810000000     0.075930000000    -0.35652    
O40      O      0.341910000000     0.476740000000     0.005180000000    -0.355486   
O41      O      0.230830000000     0.428620000000     0.483550000000    -0.345813   
O42      O      0.302290000000     0.044770000000     0.086390000000    -0.353391   
O43      O      0.325900000000     0.026660000000     0.451790000000    -0.348924   
O44      O      0.178040000000     0.046540000000     0.525240000000    -0.346687   
O45      O      0.292490000000     0.095490000000     0.043510000000    -0.341256   
O46      O      0.218360000000     0.478370000000     0.439730000000    -0.347314   
O47      O      0.178040000000     0.500030000000     0.478730000000    -0.346698   
O48      O      0.325900000000     0.073480000000     0.998610000000    -0.348286   
O49      O      0.292490000000     0.481760000000     0.429780000000    -0.341393   
O50      O      0.218360000000     0.085540000000     0.046900000000    -0.347342   
O51      O      0.256700000000     0.521940000000     0.003330000000    -0.588964   
O52      O      0.528630000000     0.075550000000     0.700980000000    -0.358033   
O53      O      0.046900000000     0.504950000000     0.843940000000    -0.354852   
O54      O      0.480000000000     0.086920000000     0.803100000000    -0.353687   
O55      O      0.094850000000     0.483690000000     0.733110000000    -0.34388    
O56      O      0.005090000000     0.049470000000     0.842880000000    -0.354462   
O57      O      0.074060000000     0.029670000000     0.700330000000    -0.35293    
O58      O      0.084390000000     0.479790000000     0.804250000000    -0.352468   
O59      O      0.481880000000     0.096180000000     0.732660000000    -0.345384   
O60      O      0.525550000000     0.479870000000     0.678890000000    -0.347275   
O61      O      0.450300000000     0.498660000000     0.828400000000    -0.350762   
O62      O      0.437740000000     0.046260000000     0.720370000000    -0.347638   
O63      O      0.041620000000     0.429340000000     0.794200000000    -0.3417     
O64      O      0.997790000000     0.451630000000     0.828840000000    -0.346332   
O65      O      0.476830000000     0.024600000000     0.680170000000    -0.346992   
O66      O      0.046750000000     0.440440000000     0.719070000000    -0.346948   
O67      O      0.428050000000     0.043160000000     0.794580000000    -0.343041   
O68      O      0.001280000000     0.002850000000     0.758790000000    -0.588141   
O69      O      0.997790000000     0.196430000000     0.573640000000    -0.346318   
O70      O      0.476830000000     0.345100000000     0.000670000000    -0.347274   
O71      O      0.046750000000     0.306200000000     0.584830000000    -0.346978   
O72      O      0.428050000000     0.230690000000     0.982110000000    -0.342866   
O73      O      0.525550000000     0.346380000000     0.545410000000    -0.347337   
O74      O      0.450300000000     0.196870000000     0.526610000000    -0.35073    
O75      O      0.437740000000     0.304900000000     0.979010000000    -0.347682   
O76      O      0.041620000000     0.231070000000     0.595940000000    -0.341653   
O77      O      0.005090000000     0.182390000000     0.975800000000    -0.354114   
O78      O      0.074060000000     0.324940000000     0.995600000000    -0.352289   
O79      O      0.084390000000     0.221030000000     0.545480000000    -0.352432   
O80      O      0.481880000000     0.292610000000     0.929090000000    -0.345396   
O81      O      0.528630000000     0.324290000000     0.949720000000    -0.357832   
O82      O      0.046900000000     0.181330000000     0.520320000000    -0.354737   
O83      O      0.480000000000     0.222170000000     0.938350000000    -0.353683   
O84      O      0.094850000000     0.292160000000     0.541590000000    -0.343758   
O85      O      0.501280000000     0.266480000000     0.522420000000    -0.587896   
O86      O      0.341910000000     0.020100000000     0.548530000000    -0.35525    
O87      O      0.197900000000     0.449350000000     0.029460000000    -0.356475   
O88      O      0.230830000000     0.041720000000     0.596660000000    -0.345819   
O89      O      0.302290000000     0.438880000000     0.980500000000    -0.353374   
O90      O      0.197900000000     0.495810000000     0.575930000000    -0.356493   
O91      O      0.341910000000     0.476740000000     0.505180000000    -0.35522    
O92      O      0.230830000000     0.428620000000     0.983550000000    -0.345475   
O93      O      0.302290000000     0.044770000000     0.586390000000    -0.35343    
O94      O      0.325900000000     0.026660000000     0.951790000000    -0.348682   
O95      O      0.178040000000     0.046540000000     0.025240000000    -0.346754   
O96      O      0.292490000000     0.095490000000     0.543510000000    -0.341334   
O97      O      0.218360000000     0.478370000000     0.939730000000    -0.347307   
O98      O      0.178040000000     0.500030000000     0.978730000000    -0.346381   
O99      O      0.325900000000     0.073480000000     0.498610000000    -0.348921   
O100     O      0.292490000000     0.481760000000     0.929780000000    -0.341429   
O101     O      0.218360000000     0.085540000000     0.546900000000    -0.34731    
O102     O      0.256700000000     0.521940000000     0.503330000000    -0.588816   
O103     O      0.528630000000     0.575550000000     0.200980000000    -0.358034   
O104     O      0.046900000000     0.004950000000     0.343940000000    -0.35524    
O105     O      0.480000000000     0.586920000000     0.303100000000    -0.353731   
O106     O      0.094850000000     0.983690000000     0.233110000000    -0.343621   
O107     O      0.005090000000     0.549470000000     0.342880000000    -0.354493   
O108     O      0.074060000000     0.529670000000     0.200330000000    -0.352967   
O109     O      0.084390000000     0.979790000000     0.304250000000    -0.35252    
O110     O      0.481880000000     0.596180000000     0.232670000000    -0.34535    
O111     O      0.525560000000     0.979870000000     0.178890000000    -0.346962   
O112     O      0.450300000000     0.998660000000     0.328400000000    -0.350146   
O113     O      0.437740000000     0.546260000000     0.220380000000    -0.347577   
O114     O      0.041620000000     0.929340000000     0.294200000000    -0.341696   
O115     O      0.997790000000     0.951630000000     0.328840000000    -0.346107   
O116     O      0.476830000000     0.524600000000     0.180170000000    -0.34686    
O117     O      0.046750000000     0.940440000000     0.219070000000    -0.346952   
O118     O      0.428050000000     0.543160000000     0.294580000000    -0.343119   
O119     O      0.001280000000     0.502850000000     0.258790000000    -0.587991   
O120     O      0.997790000000     0.696430000000     0.073640000000    -0.346283   
O121     O      0.476830000000     0.845100000000     0.500670000000    -0.346872   
O122     O      0.046750000000     0.806200000000     0.084830000000    -0.346917   
O123     O      0.428050000000     0.730690000000     0.482110000000    -0.343148   
O124     O      0.525550000000     0.846380000000     0.045400000000    -0.347226   
O125     O      0.450300000000     0.696870000000     0.026610000000    -0.350685   
O126     O      0.437740000000     0.804900000000     0.479000000000    -0.347641   
O127     O      0.041620000000     0.731070000000     0.095940000000    -0.341635   
O128     O      0.005090000000     0.682400000000     0.475800000000    -0.354536   
O129     O      0.074060000000     0.824940000000     0.495600000000    -0.352908   
O130     O      0.084390000000     0.721030000000     0.045480000000    -0.352461   
O131     O      0.481880000000     0.792610000000     0.429090000000    -0.345419   
O132     O      0.528630000000     0.824290000000     0.449720000000    -0.35805    
O133     O      0.046900000000     0.681330000000     0.020320000000    -0.354817   
O134     O      0.480000000000     0.722170000000     0.438350000000    -0.353682   
O135     O      0.094850000000     0.792160000000     0.041590000000    -0.343676   
O136     O      0.501280000000     0.766480000000     0.022420000000    -0.587982   
O137     O      0.341910000000     0.520090000000     0.048530000000    -0.35509    
O138     O      0.197900000000     0.949350000000     0.529460000000    -0.35627    
O139     O      0.230830000000     0.541720000000     0.096660000000    -0.345874   
O140     O      0.302290000000     0.938880000000     0.480500000000    -0.353327   
O141     O      0.197900000000     0.995810000000     0.075920000000    -0.355818   
O142     O      0.341910000000     0.976740000000     0.005180000000    -0.355163   
O143     O      0.230830000000     0.928620000000     0.483550000000    -0.345814   
O144     O      0.302290000000     0.544770000000     0.086390000000    -0.353364   
O145     O      0.325900000000     0.526670000000     0.451790000000    -0.348853   
O146     O      0.178040000000     0.546540000000     0.525240000000    -0.346703   
O147     O      0.292490000000     0.595490000000     0.043510000000    -0.34127    
O148     O      0.218360000000     0.978370000000     0.439730000000    -0.347366   
O149     O      0.178040000000     0.000030000000     0.478730000000    -0.347088   
O150     O      0.325900000000     0.573480000000     0.998610000000    -0.348321   
O151     O      0.292490000000     0.981760000000     0.429780000000    -0.341084   
O152     O      0.218360000000     0.585540000000     0.046900000000    -0.347381   
O153     O      0.256700000000     0.021940000000     0.003330000000    -0.589051   
O154     O      0.528620000000     0.575550000000     0.700980000000    -0.358173   
O155     O      0.046900000000     0.004950000000     0.843940000000    -0.355226   
O156     O      0.480000000000     0.586920000000     0.803100000000    -0.3537     
O157     O      0.094850000000     0.983690000000     0.733110000000    -0.343605   
O158     O      0.005090000000     0.549470000000     0.842880000000    -0.354484   
O159     O      0.074060000000     0.529670000000     0.700330000000    -0.352977   
O160     O      0.084390000000     0.979790000000     0.804250000000    -0.35252    
O161     O      0.481880000000     0.596180000000     0.732660000000    -0.345443   
O162     O      0.525560000000     0.979870000000     0.678890000000    -0.346966   
O163     O      0.450300000000     0.998660000000     0.828400000000    -0.350134   
O164     O      0.437740000000     0.546260000000     0.720380000000    -0.347569   
O165     O      0.041620000000     0.929340000000     0.794200000000    -0.341702   
O166     O      0.997790000000     0.951630000000     0.828840000000    -0.346098   
O167     O      0.476830000000     0.524600000000     0.680170000000    -0.346851   
O168     O      0.046750000000     0.940440000000     0.719070000000    -0.346937   
O169     O      0.428050000000     0.543160000000     0.794580000000    -0.343114   
O170     O      0.001280000000     0.502850000000     0.758790000000    -0.587997   
O171     O      0.997790000000     0.696430000000     0.573640000000    -0.346329   
O172     O      0.476830000000     0.845100000000     0.000670000000    -0.347269   
O173     O      0.046750000000     0.806200000000     0.584830000000    -0.346978   
O174     O      0.428050000000     0.730690000000     0.982110000000    -0.342794   
O175     O      0.525550000000     0.846380000000     0.545410000000    -0.347318   
O176     O      0.450300000000     0.696870000000     0.526610000000    -0.350725   
O177     O      0.437740000000     0.804900000000     0.979010000000    -0.347739   
O178     O      0.041620000000     0.731070000000     0.595940000000    -0.341654   
O179     O      0.005090000000     0.682390000000     0.975800000000    -0.354119   
O180     O      0.074060000000     0.824940000000     0.995600000000    -0.35228    
O181     O      0.084390000000     0.721030000000     0.545480000000    -0.352434   
O182     O      0.481880000000     0.792610000000     0.929090000000    -0.345433   
O183     O      0.528630000000     0.824290000000     0.949720000000    -0.357826   
O184     O      0.046900000000     0.681330000000     0.520320000000    -0.354739   
O185     O      0.480000000000     0.722170000000     0.938350000000    -0.353635   
O186     O      0.094850000000     0.792160000000     0.541590000000    -0.343758   
O187     O      0.501280000000     0.766480000000     0.522420000000    -0.587903   
O188     O      0.341910000000     0.520090000000     0.548530000000    -0.355103   
O189     O      0.197900000000     0.949350000000     0.029460000000    -0.356244   
O190     O      0.230830000000     0.541720000000     0.596660000000    -0.345933   
O191     O      0.302290000000     0.938880000000     0.980500000000    -0.353364   
O192     O      0.197900000000     0.995810000000     0.575920000000    -0.355849   
O193     O      0.341910000000     0.976740000000     0.505180000000    -0.354904   
O194     O      0.230830000000     0.928620000000     0.983550000000    -0.345475   
O195     O      0.302290000000     0.544770000000     0.586390000000    -0.353367   
O196     O      0.325900000000     0.526660000000     0.951790000000    -0.348716   
O197     O      0.178040000000     0.546540000000     0.025240000000    -0.346747   
O198     O      0.292490000000     0.595490000000     0.543510000000    -0.341352   
O199     O      0.218360000000     0.978370000000     0.939730000000    -0.347361   
O200     O      0.178040000000     0.000030000000     0.978730000000    -0.346772   
O201     O      0.325900000000     0.573480000000     0.498610000000    -0.348952   
O202     O      0.292490000000     0.981760000000     0.929780000000    -0.341083   
O203     O      0.218360000000     0.585540000000     0.546900000000    -0.347319   
O204     O      0.256700000000     0.021940000000     0.503330000000    -0.588908   
O205     O      0.028630000000     0.075550000000     0.200980000000    -0.358013   
O206     O      0.546900000000     0.504950000000     0.343940000000    -0.354893   
O207     O      0.980000000000     0.086920000000     0.303100000000    -0.353741   
O208     O      0.594850000000     0.483690000000     0.233110000000    -0.343962   
O209     O      0.505090000000     0.049470000000     0.342880000000    -0.354116   
O210     O      0.574060000000     0.029670000000     0.200330000000    -0.352962   
O211     O      0.584390000000     0.479790000000     0.304250000000    -0.352536   
O212     O      0.981880000000     0.096180000000     0.232660000000    -0.345063   
O213     O      0.025550000000     0.479870000000     0.178890000000    -0.347322   
O214     O      0.950300000000     0.498660000000     0.328400000000    -0.350555   
O215     O      0.937740000000     0.046260000000     0.220370000000    -0.347625   
O216     O      0.541620000000     0.429340000000     0.294200000000    -0.341789   
O217     O      0.497790000000     0.451630000000     0.328840000000    -0.346961   
O218     O      0.976830000000     0.024600000000     0.180170000000    -0.34663    
O219     O      0.546750000000     0.440440000000     0.219070000000    -0.346915   
O220     O      0.928050000000     0.043160000000     0.294580000000    -0.343046   
O221     O      0.501280000000     0.002850000000     0.258790000000    -0.588002   
O222     O      0.497790000000     0.196430000000     0.073640000000    -0.346891   
O223     O      0.976830000000     0.345100000000     0.500670000000    -0.34658    
O224     O      0.546750000000     0.306200000000     0.084830000000    -0.346892   
O225     O      0.928050000000     0.230690000000     0.482110000000    -0.343185   
O226     O      0.025550000000     0.346380000000     0.045400000000    -0.347307   
O227     O      0.950300000000     0.196870000000     0.026600000000    -0.350567   
O228     O      0.937740000000     0.304900000000     0.479000000000    -0.347575   
O229     O      0.541620000000     0.231070000000     0.095940000000    -0.341707   
O230     O      0.505090000000     0.182390000000     0.475800000000    -0.354073   
O231     O      0.574060000000     0.324940000000     0.495600000000    -0.352951   
O232     O      0.584390000000     0.221030000000     0.045480000000    -0.352464   
O233     O      0.981880000000     0.292610000000     0.429090000000    -0.34506    
O234     O      0.028630000000     0.324290000000     0.449720000000    -0.358026   
O235     O      0.546900000000     0.181330000000     0.020320000000    -0.354834   
O236     O      0.980000000000     0.222170000000     0.438350000000    -0.353741   
O237     O      0.594850000000     0.292160000000     0.041590000000    -0.343683   
O238     O      0.001280000000     0.266480000000     0.022420000000    -0.588121   
O239     O      0.841910000000     0.020090000000     0.048530000000    -0.355158   
O240     O      0.697900000000     0.449350000000     0.529460000000    -0.356499   
O241     O      0.730830000000     0.041720000000     0.096660000000    -0.345745   
O242     O      0.802290000000     0.438880000000     0.480500000000    -0.353339   
O243     O      0.697900000000     0.495810000000     0.075930000000    -0.356517   
O244     O      0.841910000000     0.476740000000     0.005180000000    -0.355477   
O245     O      0.730830000000     0.428620000000     0.483550000000    -0.345813   
O246     O      0.802290000000     0.044770000000     0.086390000000    -0.353389   
O247     O      0.825900000000     0.026660000000     0.451790000000    -0.348929   
O248     O      0.678040000000     0.046540000000     0.525240000000    -0.346688   
O249     O      0.792490000000     0.095490000000     0.043510000000    -0.341257   
O250     O      0.718360000000     0.478370000000     0.439730000000    -0.347304   
O251     O      0.678040000000     0.500030000000     0.478730000000    -0.346683   
O252     O      0.825900000000     0.073480000000     0.998610000000    -0.348277   
O253     O      0.792490000000     0.481760000000     0.429780000000    -0.341395   
O254     O      0.718360000000     0.085540000000     0.046900000000    -0.347347   
O255     O      0.756700000000     0.521940000000     0.003330000000    -0.588965   
O256     O      0.028630000000     0.075550000000     0.700980000000    -0.357997   
O257     O      0.546900000000     0.504950000000     0.843940000000    -0.354872   
O258     O      0.980000000000     0.086920000000     0.803100000000    -0.353738   
O259     O      0.594850000000     0.483690000000     0.733110000000    -0.343892   
O260     O      0.505090000000     0.049470000000     0.842880000000    -0.354104   
O261     O      0.574060000000     0.029670000000     0.700330000000    -0.352954   
O262     O      0.584390000000     0.479790000000     0.804250000000    -0.352475   
O263     O      0.981880000000     0.096180000000     0.732660000000    -0.345058   
O264     O      0.025550000000     0.479870000000     0.678890000000    -0.347335   
O265     O      0.950300000000     0.498660000000     0.828400000000    -0.35054    
O266     O      0.937740000000     0.046260000000     0.720370000000    -0.347631   
O267     O      0.541620000000     0.429340000000     0.794200000000    -0.341788   
O268     O      0.497790000000     0.451630000000     0.828840000000    -0.346949   
O269     O      0.976830000000     0.024600000000     0.680170000000    -0.346685   
O270     O      0.546750000000     0.440440000000     0.719070000000    -0.346919   
O271     O      0.928050000000     0.043160000000     0.794580000000    -0.343044   
O272     O      0.501280000000     0.002850000000     0.758790000000    -0.588002   
O273     O      0.497790000000     0.196430000000     0.573640000000    -0.34692    
O274     O      0.976830000000     0.345100000000     0.000670000000    -0.346976   
O275     O      0.546750000000     0.306200000000     0.584830000000    -0.346951   
O276     O      0.928050000000     0.230690000000     0.982110000000    -0.342868   
O277     O      0.025550000000     0.346380000000     0.545410000000    -0.347396   
O278     O      0.950300000000     0.196870000000     0.526610000000    -0.350506   
O279     O      0.937740000000     0.304900000000     0.979010000000    -0.347676   
O280     O      0.541620000000     0.231070000000     0.595940000000    -0.341726   
O281     O      0.505090000000     0.182390000000     0.975800000000    -0.353768   
O282     O      0.574060000000     0.324940000000     0.995600000000    -0.352319   
O283     O      0.584390000000     0.221030000000     0.545480000000    -0.352435   
O284     O      0.981880000000     0.292610000000     0.929090000000    -0.345074   
O285     O      0.028630000000     0.324290000000     0.949720000000    -0.357802   
O286     O      0.546900000000     0.181330000000     0.520320000000    -0.35475    
O287     O      0.980000000000     0.222170000000     0.938350000000    -0.35372    
O288     O      0.594850000000     0.292160000000     0.541590000000    -0.34377    
O289     O      0.001280000000     0.266480000000     0.522420000000    -0.588038   
O290     O      0.841910000000     0.020100000000     0.548530000000    -0.355245   
O291     O      0.697900000000     0.449350000000     0.029460000000    -0.356432   
O292     O      0.730830000000     0.041720000000     0.596660000000    -0.345754   
O293     O      0.802290000000     0.438880000000     0.980500000000    -0.353372   
O294     O      0.697900000000     0.495810000000     0.575930000000    -0.35649    
O295     O      0.841910000000     0.476740000000     0.505180000000    -0.35521    
O296     O      0.730830000000     0.428620000000     0.983550000000    -0.345539   
O297     O      0.802290000000     0.044770000000     0.586390000000    -0.353429   
O298     O      0.825900000000     0.026660000000     0.951790000000    -0.348673   
O299     O      0.678040000000     0.046540000000     0.025240000000    -0.346753   
O300     O      0.792490000000     0.095490000000     0.543510000000    -0.341348   
O301     O      0.718360000000     0.478370000000     0.939730000000    -0.347299   
O302     O      0.678040000000     0.500030000000     0.978730000000    -0.346368   
O303     O      0.825900000000     0.073480000000     0.498610000000    -0.348993   
O304     O      0.792490000000     0.481760000000     0.929780000000    -0.341432   
O305     O      0.718360000000     0.085540000000     0.546900000000    -0.347316   
O306     O      0.756700000000     0.521940000000     0.503330000000    -0.588817   
O307     O      0.028630000000     0.575550000000     0.200980000000    -0.357999   
O308     O      0.546900000000     0.004950000000     0.343940000000    -0.355259   
O309     O      0.980000000000     0.586920000000     0.303100000000    -0.353739   
O310     O      0.594850000000     0.983690000000     0.233110000000    -0.343618   
O311     O      0.505090000000     0.549470000000     0.342880000000    -0.354123   
O312     O      0.574060000000     0.529670000000     0.200330000000    -0.353009   
O313     O      0.584390000000     0.979790000000     0.304250000000    -0.352529   
O314     O      0.981880000000     0.596180000000     0.232670000000    -0.345028   
O315     O      0.025550000000     0.979870000000     0.178890000000    -0.346985   
O316     O      0.950300000000     0.998660000000     0.328400000000    -0.349923   
O317     O      0.937740000000     0.546260000000     0.220380000000    -0.347571   
O318     O      0.541620000000     0.929340000000     0.294200000000    -0.341781   
O319     O      0.497790000000     0.951630000000     0.328840000000    -0.346717   
O320     O      0.976830000000     0.524600000000     0.180170000000    -0.346561   
O321     O      0.546750000000     0.940440000000     0.219070000000    -0.346945   
O322     O      0.928050000000     0.543160000000     0.294580000000    -0.343116   
O323     O      0.501280000000     0.502850000000     0.258790000000    -0.58781    
O324     O      0.497790000000     0.696430000000     0.073640000000    -0.346895   
O325     O      0.976830000000     0.845100000000     0.500670000000    -0.346575   
O326     O      0.546750000000     0.806200000000     0.084830000000    -0.346887   
O327     O      0.928050000000     0.730690000000     0.482110000000    -0.343147   
O328     O      0.025550000000     0.846380000000     0.045400000000    -0.347287   
O329     O      0.950300000000     0.696870000000     0.026610000000    -0.350462   
O330     O      0.937740000000     0.804900000000     0.479000000000    -0.347636   
O331     O      0.541620000000     0.731070000000     0.095940000000    -0.341716   
O332     O      0.505090000000     0.682390000000     0.475800000000    -0.354064   
O333     O      0.574060000000     0.824940000000     0.495600000000    -0.352937   
O334     O      0.584390000000     0.721030000000     0.045480000000    -0.352469   
O335     O      0.981880000000     0.792610000000     0.429090000000    -0.345101   
O336     O      0.028630000000     0.824290000000     0.449720000000    -0.358021   
O337     O      0.546900000000     0.681330000000     0.020320000000    -0.354837   
O338     O      0.980000000000     0.722170000000     0.438350000000    -0.35371    
O339     O      0.594850000000     0.792160000000     0.041590000000    -0.343684   
O340     O      0.001280000000     0.766480000000     0.022420000000    -0.588124   
O341     O      0.841910000000     0.520090000000     0.048530000000    -0.35508    
O342     O      0.697900000000     0.949350000000     0.529460000000    -0.356269   
O343     O      0.730830000000     0.541720000000     0.096660000000    -0.345874   
O344     O      0.802290000000     0.938880000000     0.480500000000    -0.35332    
O345     O      0.697900000000     0.995810000000     0.075920000000    -0.355831   
O346     O      0.841910000000     0.976740000000     0.005180000000    -0.355153   
O347     O      0.730830000000     0.928620000000     0.483550000000    -0.34582    
O348     O      0.802290000000     0.544770000000     0.086390000000    -0.353364   
O349     O      0.825900000000     0.526670000000     0.451790000000    -0.348844   
O350     O      0.678040000000     0.546540000000     0.525240000000    -0.346689   
O351     O      0.792490000000     0.595490000000     0.043510000000    -0.341273   
O352     O      0.718360000000     0.978370000000     0.439730000000    -0.347374   
O353     O      0.678040000000     0.000030000000     0.478730000000    -0.347085   
O354     O      0.825900000000     0.573480000000     0.998610000000    -0.348312   
O355     O      0.792490000000     0.981760000000     0.429780000000    -0.341089   
O356     O      0.718360000000     0.585540000000     0.046900000000    -0.347372   
O357     O      0.756700000000     0.021940000000     0.003330000000    -0.589052   
O358     O      0.028620000000     0.575550000000     0.700980000000    -0.358137   
O359     O      0.546900000000     0.004950000000     0.843940000000    -0.355248   
O360     O      0.980000000000     0.586920000000     0.803100000000    -0.353749   
O361     O      0.594850000000     0.983690000000     0.733110000000    -0.343617   
O362     O      0.505090000000     0.549470000000     0.842880000000    -0.354128   
O363     O      0.574060000000     0.529670000000     0.700330000000    -0.353006   
O364     O      0.584390000000     0.979790000000     0.804250000000    -0.35253    
O365     O      0.981880000000     0.596180000000     0.732660000000    -0.345117   
O366     O      0.025550000000     0.979870000000     0.678890000000    -0.347009   
O367     O      0.950300000000     0.998660000000     0.828400000000    -0.349913   
O368     O      0.937740000000     0.546260000000     0.720380000000    -0.347563   
O369     O      0.541620000000     0.929340000000     0.794200000000    -0.34179    
O370     O      0.497790000000     0.951630000000     0.828840000000    -0.346715   
O371     O      0.976830000000     0.524600000000     0.680170000000    -0.346553   
O372     O      0.546750000000     0.940440000000     0.719070000000    -0.346952   
O373     O      0.928050000000     0.543160000000     0.794580000000    -0.343115   
O374     O      0.501280000000     0.502850000000     0.758790000000    -0.587856   
O375     O      0.497790000000     0.696430000000     0.573640000000    -0.346921   
O376     O      0.976830000000     0.845100000000     0.000670000000    -0.346971   
O377     O      0.546750000000     0.806200000000     0.584830000000    -0.34695    
O378     O      0.928050000000     0.730690000000     0.982110000000    -0.342795   
O379     O      0.025550000000     0.846380000000     0.545410000000    -0.347378   
O380     O      0.950300000000     0.696870000000     0.526610000000    -0.350506   
O381     O      0.937740000000     0.804900000000     0.979010000000    -0.347733   
O382     O      0.541620000000     0.731070000000     0.595940000000    -0.341727   
O383     O      0.505090000000     0.682390000000     0.975800000000    -0.353763   
O384     O      0.574060000000     0.824940000000     0.995600000000    -0.352305   
O385     O      0.584390000000     0.721030000000     0.545480000000    -0.35244    
O386     O      0.981880000000     0.792610000000     0.929090000000    -0.345115   
O387     O      0.028630000000     0.824290000000     0.949720000000    -0.357797   
O388     O      0.546900000000     0.681330000000     0.520320000000    -0.354755   
O389     O      0.980000000000     0.722170000000     0.938350000000    -0.353684   
O390     O      0.594850000000     0.792160000000     0.541590000000    -0.34377    
O391     O      0.001280000000     0.766480000000     0.522420000000    -0.588051   
O392     O      0.841910000000     0.520090000000     0.548530000000    -0.355093   
O393     O      0.697900000000     0.949350000000     0.029460000000    -0.356243   
O394     O      0.730830000000     0.541720000000     0.596660000000    -0.345933   
O395     O      0.802290000000     0.938880000000     0.980500000000    -0.353365   
O396     O      0.697900000000     0.995810000000     0.575920000000    -0.35586    
O397     O      0.841910000000     0.976740000000     0.505180000000    -0.354836   
O398     O      0.730830000000     0.928620000000     0.983550000000    -0.345478   
O399     O      0.802290000000     0.544770000000     0.586390000000    -0.353367   
O400     O      0.825900000000     0.526660000000     0.951790000000    -0.348707   
O401     O      0.678040000000     0.546540000000     0.025240000000    -0.346731   
O402     O      0.792490000000     0.595490000000     0.543510000000    -0.341354   
O403     O      0.718360000000     0.978370000000     0.939730000000    -0.347362   
O404     O      0.678040000000     0.000030000000     0.978730000000    -0.346767   
O405     O      0.825900000000     0.573480000000     0.498610000000    -0.348942   
O406     O      0.792490000000     0.981760000000     0.929780000000    -0.341085   
O407     O      0.718360000000     0.585540000000     0.546900000000    -0.347313   
O408     O      0.756700000000     0.021940000000     0.503330000000    -0.588918   


