data_structure

_audit_creation_method RASPA-1.0
_audit_creation_date 2023-5-19
_audit_author_name 'Poobodin Mano'

_cell_length_a    29.3885
_cell_length_b    29.778
_cell_length_c    29.5991
_cell_angle_alpha 90
_cell_angle_beta  90
_cell_angle_gamma 90
_cell_volume      25903.1

_symmetry_cell_setting          triclinic
_symmetry_space_group_name_Hall 'P 1'
_symmetry_space_group_name_H-M  'P 1'
_symmetry_Int_Tables_number     1

_symmetry_equiv_pos_as_xyz 'x,y,z'

loop_
_atom_site_label
_atom_site_type_symbol
_atom_site_fract_x
_atom_site_fract_y
_atom_site_fract_z
_atom_site_charge
C1       C      0.448000000000     0.440470000000     0.468630000000     0.395661   
C2       C      0.105650000000     0.086700000000     0.451430000000     0.392752   
C3       C      0.446070000000     0.103830000000     0.466320000000     0.391373   
C4       C      0.108840000000     0.433680000000     0.474530000000     0.399817   
C5       C      0.106110000000     0.442970000000     0.092110000000     0.394398   
C6       C      0.456460000000     0.099770000000     0.087420000000     0.399124   
C7       C      0.453830000000     0.456400000000     0.097390000000     0.39928    
C8       C      0.118800000000     0.109570000000     0.065580000000     0.39801    
C9       C      0.360860000000     0.362600000000     0.225840000000     0.402734   
C10      C      0.197900000000     0.193920000000     0.206550000000     0.396094   
C11      C      0.354260000000     0.201510000000     0.199060000000     0.398689   
C12      C      0.186630000000     0.359770000000     0.232520000000     0.400359   
C13      C      0.205290000000     0.336160000000     0.347500000000     0.395839   
C14      C      0.358580000000     0.193010000000     0.328140000000     0.388821   
C15      C      0.359260000000     0.350540000000     0.332520000000     0.387705   
C16      C      0.196870000000     0.181850000000     0.319470000000     0.392921   
C17      C      0.191110000000     0.124660000000     0.106440000000    -0.0103953  
C18      C      0.130670000000     0.183110000000     0.103110000000     0.00754985 
C19      C      0.190590000000     0.126620000000     0.158120000000    -0.0155352  
C20      C      0.128840000000     0.184830000000     0.155060000000    -0.0602701  
C21      C      0.110910000000     0.229920000000     0.170450000000     0.322784   
C22      C      0.121810000000     0.158290000000     0.349000000000    -0.00881341 
C23      C      0.187410000000     0.106300000000     0.353320000000     0.00547611 
C24      C      0.109210000000     0.148880000000     0.397900000000    -0.0172435  
C25      C      0.175090000000     0.092940000000     0.402170000000    -0.0575664  
C26      C      0.185400000000     0.043400000000     0.407240000000     0.315132   
C27      C      0.113200000000     0.375940000000     0.141640000000    -0.014494   
C28      C      0.170260000000     0.439320000000     0.146670000000     0.00486314 
C29      C      0.113130000000     0.372950000000     0.193440000000    -0.00972691 
C30      C      0.167510000000     0.436040000000     0.198490000000    -0.0542877  
C31      C      0.208150000000     0.456840000000     0.221970000000     0.317539   
C32      C      0.395500000000     0.104080000000     0.145190000000    -0.0102907  
C33      C      0.453480000000     0.165650000000     0.138780000000     0.00819712 
C34      C      0.357470000000     0.139030000000     0.144140000000    -0.0141782  
C35      C      0.414660000000     0.200150000000     0.137000000000    -0.0574704  
C36      C      0.430720000000     0.246250000000     0.150810000000     0.320124   
C37      C      0.432840000000     0.367520000000     0.430300000000    -0.0110636  
C38      C      0.379730000000     0.432890000000     0.420220000000     0.00846194 
C39      C      0.428600000000     0.356960000000     0.379580000000    -0.0153246  
C40      C      0.380070000000     0.424870000000     0.369190000000    -0.0591618  
C41      C      0.339720000000     0.447110000000     0.346500000000     0.321363   
C42      C      0.372420000000     0.121470000000     0.369420000000    -0.012248   
C43      C      0.425320000000     0.187200000000     0.379220000000     0.00658744 
C44      C      0.375900000000     0.111760000000     0.420350000000    -0.0158125  
C45      C      0.425160000000     0.178930000000     0.430440000000    -0.0580068  
C46      C      0.465730000000     0.200670000000     0.453160000000     0.3182     
C47      C      0.205540000000     0.394600000000     0.405750000000    -0.0125917  
C48      C      0.145800000000     0.332750000000     0.406920000000     0.00913929 
C49      C      0.184310000000     0.405930000000     0.451420000000    -0.00722416 
C50      C      0.111740000000     0.369000000000     0.422120000000    -0.0572405  
C51      C      0.088600000000     0.389080000000     0.381270000000     0.316867   
C52      C      0.434750000000     0.379570000000     0.191690000000    -0.0115107  
C53      C      0.372740000000     0.439010000000     0.194720000000     0.00593068 
C54      C      0.461610000000     0.418050000000     0.170730000000    -0.00901841 
C55      C      0.386010000000     0.452670000000     0.146410000000    -0.0539415  
C56      C      0.354900000000     0.429820000000     0.112910000000     0.320877   
C57      C      0.448000000000     0.440470000000     0.968630000000     0.395615   
C58      C      0.105650000000     0.086700000000     0.951430000000     0.392702   
C59      C      0.446070000000     0.103830000000     0.966310000000     0.391279   
C60      C      0.108840000000     0.433680000000     0.974530000000     0.399772   
C61      C      0.106110000000     0.442970000000     0.592110000000     0.394395   
C62      C      0.456460000000     0.099770000000     0.587420000000     0.399178   
C63      C      0.453830000000     0.456400000000     0.597390000000     0.399326   
C64      C      0.118800000000     0.109570000000     0.565580000000     0.398068   
C65      C      0.360860000000     0.362600000000     0.725840000000     0.402739   
C66      C      0.197900000000     0.193920000000     0.706550000000     0.396096   
C67      C      0.354260000000     0.201510000000     0.699060000000     0.39865    
C68      C      0.186630000000     0.359770000000     0.732520000000     0.40036    
C69      C      0.205290000000     0.336160000000     0.847500000000     0.395841   
C70      C      0.358580000000     0.193010000000     0.828130000000     0.388824   
C71      C      0.359260000000     0.350540000000     0.832530000000     0.387658   
C72      C      0.196870000000     0.181850000000     0.819470000000     0.392958   
C73      C      0.191110000000     0.124660000000     0.606440000000    -0.010403   
C74      C      0.130670000000     0.183110000000     0.603110000000     0.00753766 
C75      C      0.190590000000     0.126620000000     0.658120000000    -0.0155311  
C76      C      0.128840000000     0.184830000000     0.655060000000    -0.0602608  
C77      C      0.110910000000     0.229920000000     0.670450000000     0.322779   
C78      C      0.121810000000     0.158290000000     0.849000000000    -0.00880704 
C79      C      0.187410000000     0.106300000000     0.853320000000     0.00547298 
C80      C      0.109210000000     0.148880000000     0.897900000000    -0.0172504  
C81      C      0.175090000000     0.092940000000     0.902170000000    -0.0575486  
C82      C      0.185400000000     0.043400000000     0.907240000000     0.315076   
C83      C      0.113200000000     0.375940000000     0.641640000000    -0.0145016  
C84      C      0.170260000000     0.439320000000     0.646670000000     0.00486772 
C85      C      0.113130000000     0.372950000000     0.693440000000    -0.00971364 
C86      C      0.167510000000     0.436040000000     0.698490000000    -0.0542848  
C87      C      0.208150000000     0.456840000000     0.721970000000     0.317535   
C88      C      0.395500000000     0.104080000000     0.645190000000    -0.010289   
C89      C      0.453480000000     0.165650000000     0.638780000000     0.00820749 
C90      C      0.357470000000     0.139030000000     0.644140000000    -0.0141598  
C91      C      0.414660000000     0.200150000000     0.637000000000    -0.0574741  
C92      C      0.430720000000     0.246250000000     0.650810000000     0.320135   
C93      C      0.432840000000     0.367520000000     0.930300000000    -0.0110767  
C94      C      0.379730000000     0.432890000000     0.920220000000     0.00846644 
C95      C      0.428600000000     0.356960000000     0.879570000000    -0.0153189  
C96      C      0.380070000000     0.424870000000     0.869190000000    -0.0591548  
C97      C      0.339720000000     0.447110000000     0.846500000000     0.321359   
C98      C      0.372420000000     0.121470000000     0.869420000000    -0.0122561  
C99      C      0.425320000000     0.187200000000     0.879220000000     0.00656986 
C100     C      0.375900000000     0.111760000000     0.920350000000    -0.0158137  
C101     C      0.425160000000     0.178930000000     0.930440000000    -0.0579539  
C102     C      0.465730000000     0.200670000000     0.953160000000     0.318049   
C103     C      0.205540000000     0.394600000000     0.905750000000    -0.0125906  
C104     C      0.145800000000     0.332750000000     0.906920000000     0.00911324 
C105     C      0.184310000000     0.405930000000     0.951420000000    -0.0072375  
C106     C      0.111740000000     0.369000000000     0.922130000000    -0.0572064  
C107     C      0.088600000000     0.389080000000     0.881270000000     0.316897   
C108     C      0.434750000000     0.379570000000     0.691690000000    -0.0115135  
C109     C      0.372740000000     0.439010000000     0.694720000000     0.00592746 
C110     C      0.461610000000     0.418050000000     0.670730000000    -0.00901344 
C111     C      0.386010000000     0.452670000000     0.646410000000    -0.0539344  
C112     C      0.354900000000     0.429820000000     0.612910000000     0.320891   
C113     C      0.448000000000     0.940470000000     0.468630000000     0.395653   
C114     C      0.105650000000     0.586710000000     0.451430000000     0.392738   
C115     C      0.446070000000     0.603830000000     0.466320000000     0.391379   
C116     C      0.108840000000     0.933680000000     0.474530000000     0.399813   
C117     C      0.106110000000     0.942970000000     0.092110000000     0.394391   
C118     C      0.456460000000     0.599780000000     0.087420000000     0.399097   
C119     C      0.453830000000     0.956400000000     0.097390000000     0.399276   
C120     C      0.118800000000     0.609570000000     0.065580000000     0.398155   
C121     C      0.360860000000     0.862600000000     0.225840000000     0.402735   
C122     C      0.197900000000     0.693920000000     0.206550000000     0.396092   
C123     C      0.354260000000     0.701510000000     0.199060000000     0.398689   
C124     C      0.186630000000     0.859770000000     0.232520000000     0.400359   
C125     C      0.205290000000     0.836160000000     0.347500000000     0.395839   
C126     C      0.358580000000     0.693010000000     0.328140000000     0.38882    
C127     C      0.359260000000     0.850540000000     0.332520000000     0.387705   
C128     C      0.196870000000     0.681850000000     0.319470000000     0.392919   
C129     C      0.191110000000     0.624660000000     0.106440000000    -0.0103857  
C130     C      0.130670000000     0.683110000000     0.103110000000     0.00755015 
C131     C      0.190590000000     0.626620000000     0.158120000000    -0.0155392  
C132     C      0.128840000000     0.684820000000     0.155060000000    -0.0602671  
C133     C      0.110910000000     0.729910000000     0.170450000000     0.322604   
C134     C      0.121810000000     0.658290000000     0.349000000000    -0.00881377 
C135     C      0.187410000000     0.606300000000     0.353320000000     0.00545433 
C136     C      0.109210000000     0.648880000000     0.397900000000    -0.0172446  
C137     C      0.175090000000     0.592940000000     0.402170000000    -0.0575346  
C138     C      0.185400000000     0.543400000000     0.407240000000     0.315092   
C139     C      0.113200000000     0.875940000000     0.141640000000    -0.0144922  
C140     C      0.170260000000     0.939320000000     0.146670000000     0.00486116 
C141     C      0.113130000000     0.872950000000     0.193440000000    -0.00972962 
C142     C      0.167510000000     0.936040000000     0.198490000000    -0.0542863  
C143     C      0.208150000000     0.956840000000     0.221970000000     0.317548   
C144     C      0.395500000000     0.604080000000     0.145190000000    -0.0102852  
C145     C      0.453480000000     0.665650000000     0.138780000000     0.00819509 
C146     C      0.357470000000     0.639030000000     0.144140000000    -0.0141793  
C147     C      0.414660000000     0.700150000000     0.137000000000    -0.05747    
C148     C      0.430720000000     0.746250000000     0.150810000000     0.320123   
C149     C      0.432840000000     0.867520000000     0.430300000000    -0.0110632  
C150     C      0.379730000000     0.932890000000     0.420220000000     0.00845958 
C151     C      0.428600000000     0.856960000000     0.379580000000    -0.0153254  
C152     C      0.380070000000     0.924870000000     0.369190000000    -0.0591603  
C153     C      0.339720000000     0.947110000000     0.346500000000     0.32137    
C154     C      0.372420000000     0.621470000000     0.369420000000    -0.0122498  
C155     C      0.425320000000     0.687200000000     0.379220000000     0.00657656 
C156     C      0.375900000000     0.611760000000     0.420350000000    -0.0158126  
C157     C      0.425160000000     0.678930000000     0.430440000000    -0.0579805  
C158     C      0.465730000000     0.700680000000     0.453160000000     0.318222   
C159     C      0.205540000000     0.894600000000     0.405750000000    -0.0125934  
C160     C      0.145800000000     0.832750000000     0.406920000000     0.0091379  
C161     C      0.184310000000     0.905930000000     0.451420000000    -0.00722301 
C162     C      0.111740000000     0.869000000000     0.422120000000    -0.0572375  
C163     C      0.088600000000     0.889080000000     0.381270000000     0.316865   
C164     C      0.434750000000     0.879570000000     0.191690000000    -0.0115106  
C165     C      0.372740000000     0.939010000000     0.194720000000     0.00593344 
C166     C      0.461610000000     0.918050000000     0.170730000000    -0.00901908 
C167     C      0.386010000000     0.952660000000     0.146410000000    -0.0539136  
C168     C      0.354900000000     0.929820000000     0.112910000000     0.320871   
C169     C      0.448000000000     0.940470000000     0.968630000000     0.395607   
C170     C      0.105650000000     0.586710000000     0.951430000000     0.392689   
C171     C      0.446070000000     0.603830000000     0.966310000000     0.391285   
C172     C      0.108840000000     0.933680000000     0.974530000000     0.399768   
C173     C      0.106110000000     0.942970000000     0.592110000000     0.394389   
C174     C      0.456460000000     0.599780000000     0.587420000000     0.399152   
C175     C      0.453830000000     0.956400000000     0.597390000000     0.399322   
C176     C      0.118800000000     0.609570000000     0.565580000000     0.398213   
C177     C      0.360860000000     0.862600000000     0.725840000000     0.40274    
C178     C      0.197900000000     0.693920000000     0.706550000000     0.396094   
C179     C      0.354260000000     0.701510000000     0.699060000000     0.39865    
C180     C      0.186630000000     0.859770000000     0.732520000000     0.400359   
C181     C      0.205290000000     0.836160000000     0.847500000000     0.395841   
C182     C      0.358580000000     0.693010000000     0.828130000000     0.388824   
C183     C      0.359260000000     0.850540000000     0.832530000000     0.387657   
C184     C      0.196870000000     0.681850000000     0.819470000000     0.392956   
C185     C      0.191110000000     0.624660000000     0.606440000000    -0.0103934  
C186     C      0.130670000000     0.683110000000     0.603110000000     0.00753796 
C187     C      0.190590000000     0.626620000000     0.658120000000    -0.0155351  
C188     C      0.128840000000     0.684820000000     0.655060000000    -0.0602578  
C189     C      0.110910000000     0.729910000000     0.670450000000     0.3226     
C190     C      0.121810000000     0.658290000000     0.849000000000    -0.0088074  
C191     C      0.187410000000     0.606300000000     0.853320000000     0.0054512  
C192     C      0.109210000000     0.648880000000     0.897900000000    -0.0172515  
C193     C      0.175090000000     0.592940000000     0.902170000000    -0.0575168  
C194     C      0.185400000000     0.543400000000     0.907240000000     0.315036   
C195     C      0.113200000000     0.875940000000     0.641640000000    -0.0144998  
C196     C      0.170260000000     0.939320000000     0.646670000000     0.00486575 
C197     C      0.113130000000     0.872950000000     0.693440000000    -0.00971635 
C198     C      0.167510000000     0.936040000000     0.698490000000    -0.0542835  
C199     C      0.208150000000     0.956840000000     0.721970000000     0.317543   
C200     C      0.395500000000     0.604080000000     0.645190000000    -0.0102835  
C201     C      0.453480000000     0.665650000000     0.638780000000     0.00820546 
C202     C      0.357470000000     0.639030000000     0.644140000000    -0.014161   
C203     C      0.414660000000     0.700150000000     0.637000000000    -0.0574737  
C204     C      0.430720000000     0.746250000000     0.650810000000     0.320134   
C205     C      0.432840000000     0.867520000000     0.930300000000    -0.0110762  
C206     C      0.379730000000     0.932890000000     0.920220000000     0.00846409 
C207     C      0.428600000000     0.856960000000     0.879570000000    -0.0153196  
C208     C      0.380070000000     0.924870000000     0.869190000000    -0.0591533  
C209     C      0.339720000000     0.947110000000     0.846500000000     0.321366   
C210     C      0.372420000000     0.621470000000     0.869420000000    -0.0122579  
C211     C      0.425320000000     0.687200000000     0.879220000000     0.00655897 
C212     C      0.375900000000     0.611760000000     0.920350000000    -0.0158137  
C213     C      0.425160000000     0.678930000000     0.930440000000    -0.0579276  
C214     C      0.465730000000     0.700680000000     0.953160000000     0.318072   
C215     C      0.205540000000     0.894600000000     0.905750000000    -0.0125923  
C216     C      0.145800000000     0.832750000000     0.906920000000     0.00911185 
C217     C      0.184310000000     0.905930000000     0.951420000000    -0.00723636 
C218     C      0.111740000000     0.869000000000     0.922130000000    -0.0572034  
C219     C      0.088600000000     0.889080000000     0.881270000000     0.316894   
C220     C      0.434750000000     0.879570000000     0.691690000000    -0.0115133  
C221     C      0.372740000000     0.939010000000     0.694720000000     0.00593023 
C222     C      0.461610000000     0.918050000000     0.670730000000    -0.0090141  
C223     C      0.386010000000     0.952660000000     0.646410000000    -0.0539065  
C224     C      0.354900000000     0.929820000000     0.612910000000     0.320884   
C225     C      0.948000000000     0.440470000000     0.468630000000     0.395649   
C226     C      0.605650000000     0.086700000000     0.451430000000     0.392754   
C227     C      0.946070000000     0.103830000000     0.466320000000     0.391285   
C228     C      0.608840000000     0.433680000000     0.474530000000     0.399813   
C229     C      0.606110000000     0.442970000000     0.092110000000     0.3944     
C230     C      0.956460000000     0.099770000000     0.087420000000     0.399116   
C231     C      0.953830000000     0.456400000000     0.097390000000     0.399267   
C232     C      0.618800000000     0.109570000000     0.065580000000     0.398011   
C233     C      0.860850000000     0.362600000000     0.225840000000     0.402768   
C234     C      0.697900000000     0.193920000000     0.206550000000     0.39601    
C235     C      0.854260000000     0.201510000000     0.199060000000     0.398689   
C236     C      0.686630000000     0.359770000000     0.232520000000     0.40036    
C237     C      0.705290000000     0.336160000000     0.347500000000     0.395839   
C238     C      0.858570000000     0.193010000000     0.328140000000     0.388853   
C239     C      0.859260000000     0.350540000000     0.332520000000     0.387789   
C240     C      0.696870000000     0.181850000000     0.319470000000     0.393009   
C241     C      0.691110000000     0.124660000000     0.106440000000    -0.0103758  
C242     C      0.630670000000     0.183110000000     0.103110000000     0.00755844 
C243     C      0.690590000000     0.126620000000     0.158120000000    -0.015546   
C244     C      0.628840000000     0.184830000000     0.155060000000    -0.0602961  
C245     C      0.610910000000     0.229920000000     0.170450000000     0.322856   
C246     C      0.621810000000     0.158290000000     0.349000000000    -0.00882654 
C247     C      0.687420000000     0.106300000000     0.353320000000     0.00543085 
C248     C      0.609210000000     0.148880000000     0.397900000000    -0.0172038  
C249     C      0.675090000000     0.092940000000     0.402170000000    -0.0575466  
C250     C      0.685400000000     0.043400000000     0.407240000000     0.315125   
C251     C      0.613200000000     0.375940000000     0.141640000000    -0.0144927  
C252     C      0.670260000000     0.439320000000     0.146670000000     0.00485365 
C253     C      0.613130000000     0.372950000000     0.193440000000    -0.00972888 
C254     C      0.667510000000     0.436040000000     0.198490000000    -0.0542572  
C255     C      0.708150000000     0.456840000000     0.221970000000     0.317533   
C256     C      0.895500000000     0.104080000000     0.145190000000    -0.0102721  
C257     C      0.953470000000     0.165650000000     0.138780000000     0.00826659 
C258     C      0.857470000000     0.139030000000     0.144140000000    -0.0141879  
C259     C      0.914660000000     0.200150000000     0.137000000000    -0.0575159  
C260     C      0.930720000000     0.246250000000     0.150810000000     0.320193   
C261     C      0.932840000000     0.367520000000     0.430300000000    -0.0110684  
C262     C      0.879720000000     0.432890000000     0.420220000000     0.00836614 
C263     C      0.928600000000     0.356960000000     0.379580000000    -0.0153138  
C264     C      0.880070000000     0.424870000000     0.369190000000    -0.059124   
C265     C      0.839720000000     0.447110000000     0.346500000000     0.321351   
C266     C      0.872420000000     0.121470000000     0.369420000000    -0.0122608  
C267     C      0.925320000000     0.187200000000     0.379220000000     0.00659563 
C268     C      0.875900000000     0.111760000000     0.420350000000    -0.0158009  
C269     C      0.925160000000     0.178930000000     0.430440000000    -0.0580147  
C270     C      0.965730000000     0.200670000000     0.453160000000     0.318255   
C271     C      0.705530000000     0.394600000000     0.405750000000    -0.0125284  
C272     C      0.645800000000     0.332750000000     0.406920000000     0.00912324 
C273     C      0.684310000000     0.405930000000     0.451420000000    -0.00724908 
C274     C      0.611740000000     0.369000000000     0.422120000000    -0.0572162  
C275     C      0.588590000000     0.389080000000     0.381270000000     0.31691    
C276     C      0.934750000000     0.379570000000     0.191690000000    -0.0115083  
C277     C      0.872740000000     0.439010000000     0.194720000000     0.00591483 
C278     C      0.961610000000     0.418050000000     0.170730000000    -0.00902455 
C279     C      0.886010000000     0.452670000000     0.146410000000    -0.0539296  
C280     C      0.854900000000     0.429820000000     0.112910000000     0.32087    
C281     C      0.948000000000     0.440470000000     0.968630000000     0.395602   
C282     C      0.605650000000     0.086700000000     0.951430000000     0.392705   
C283     C      0.946070000000     0.103830000000     0.966310000000     0.391191   
C284     C      0.608840000000     0.433680000000     0.974530000000     0.399768   
C285     C      0.606110000000     0.442970000000     0.592110000000     0.394397   
C286     C      0.956460000000     0.099770000000     0.587420000000     0.39917    
C287     C      0.953830000000     0.456400000000     0.597390000000     0.399313   
C288     C      0.618800000000     0.109570000000     0.565580000000     0.39807    
C289     C      0.860850000000     0.362600000000     0.725840000000     0.402773   
C290     C      0.697900000000     0.193920000000     0.706550000000     0.396012   
C291     C      0.854260000000     0.201510000000     0.699060000000     0.39865    
C292     C      0.686630000000     0.359770000000     0.732520000000     0.400361   
C293     C      0.705290000000     0.336160000000     0.847500000000     0.395841   
C294     C      0.858570000000     0.193010000000     0.828130000000     0.388857   
C295     C      0.859260000000     0.350540000000     0.832530000000     0.387742   
C296     C      0.696870000000     0.181850000000     0.819470000000     0.393046   
C297     C      0.691110000000     0.124660000000     0.606440000000    -0.0103835  
C298     C      0.630670000000     0.183110000000     0.603110000000     0.00754625 
C299     C      0.690590000000     0.126620000000     0.658120000000    -0.0155419  
C300     C      0.628840000000     0.184830000000     0.655060000000    -0.0602868  
C301     C      0.610910000000     0.229920000000     0.670450000000     0.322851   
C302     C      0.621810000000     0.158290000000     0.849000000000    -0.00882018 
C303     C      0.687420000000     0.106300000000     0.853320000000     0.00542773 
C304     C      0.609210000000     0.148880000000     0.897900000000    -0.0172107  
C305     C      0.675090000000     0.092940000000     0.902170000000    -0.0575288  
C306     C      0.685400000000     0.043400000000     0.907240000000     0.315069   
C307     C      0.613200000000     0.375940000000     0.641640000000    -0.0145003  
C308     C      0.670260000000     0.439320000000     0.646670000000     0.00485824 
C309     C      0.613130000000     0.372950000000     0.693440000000    -0.00971561 
C310     C      0.667510000000     0.436040000000     0.698490000000    -0.0542544  
C311     C      0.708150000000     0.456840000000     0.721970000000     0.317528   
C312     C      0.895500000000     0.104080000000     0.645190000000    -0.0102704  
C313     C      0.953470000000     0.165650000000     0.638780000000     0.00827697 
C314     C      0.857470000000     0.139030000000     0.644140000000    -0.0141695  
C315     C      0.914660000000     0.200150000000     0.637000000000    -0.0575196  
C316     C      0.930720000000     0.246250000000     0.650810000000     0.320203   
C317     C      0.932840000000     0.367520000000     0.930300000000    -0.0110815  
C318     C      0.879720000000     0.432890000000     0.920220000000     0.00837064 
C319     C      0.928600000000     0.356960000000     0.879570000000    -0.0153081  
C320     C      0.880070000000     0.424870000000     0.869190000000    -0.059117   
C321     C      0.839720000000     0.447110000000     0.846500000000     0.321347   
C322     C      0.872420000000     0.121470000000     0.869420000000    -0.0122689  
C323     C      0.925320000000     0.187200000000     0.879220000000     0.00657806 
C324     C      0.875900000000     0.111760000000     0.920350000000    -0.015802   
C325     C      0.925160000000     0.178930000000     0.930440000000    -0.0579618  
C326     C      0.965730000000     0.200670000000     0.953160000000     0.318105   
C327     C      0.705530000000     0.394600000000     0.905750000000    -0.0125273  
C328     C      0.645800000000     0.332750000000     0.906920000000     0.00909719 
C329     C      0.684310000000     0.405930000000     0.951420000000    -0.00726243 
C330     C      0.611740000000     0.369000000000     0.922130000000    -0.0571821  
C331     C      0.588590000000     0.389080000000     0.881270000000     0.316939   
C332     C      0.934750000000     0.379570000000     0.691690000000    -0.011511   
C333     C      0.872740000000     0.439010000000     0.694720000000     0.00591162 
C334     C      0.961610000000     0.418050000000     0.670730000000    -0.00901958 
C335     C      0.886010000000     0.452670000000     0.646410000000    -0.0539225  
C336     C      0.854900000000     0.429820000000     0.612910000000     0.320883   
C337     C      0.948000000000     0.940470000000     0.468630000000     0.395641   
C338     C      0.605650000000     0.586710000000     0.451430000000     0.392741   
C339     C      0.946070000000     0.603830000000     0.466320000000     0.391291   
C340     C      0.608840000000     0.933680000000     0.474530000000     0.399809   
C341     C      0.606110000000     0.942970000000     0.092110000000     0.394393   
C342     C      0.956460000000     0.599780000000     0.087420000000     0.399089   
C343     C      0.953830000000     0.956400000000     0.097390000000     0.399263   
C344     C      0.618800000000     0.609570000000     0.065580000000     0.398156   
C345     C      0.860850000000     0.862600000000     0.225840000000     0.402769   
C346     C      0.697900000000     0.693920000000     0.206550000000     0.396008   
C347     C      0.854260000000     0.701510000000     0.199060000000     0.398689   
C348     C      0.686630000000     0.859770000000     0.232520000000     0.400359   
C349     C      0.705290000000     0.836160000000     0.347500000000     0.395839   
C350     C      0.858570000000     0.693010000000     0.328140000000     0.388853   
C351     C      0.859260000000     0.850540000000     0.332520000000     0.387789   
C352     C      0.696870000000     0.681850000000     0.319470000000     0.393007   
C353     C      0.691110000000     0.624660000000     0.106440000000    -0.0103662  
C354     C      0.630670000000     0.683110000000     0.103110000000     0.00755874 
C355     C      0.690590000000     0.626620000000     0.158120000000    -0.01555    
C356     C      0.628840000000     0.684820000000     0.155060000000    -0.0602931  
C357     C      0.610910000000     0.729910000000     0.170450000000     0.322676   
C358     C      0.621810000000     0.658290000000     0.349000000000    -0.0088269  
C359     C      0.687420000000     0.606300000000     0.353320000000     0.00540906 
C360     C      0.609210000000     0.648880000000     0.397900000000    -0.0172049  
C361     C      0.675090000000     0.592940000000     0.402170000000    -0.0575147  
C362     C      0.685400000000     0.543400000000     0.407240000000     0.315085   
C363     C      0.613200000000     0.875940000000     0.141640000000    -0.0144909  
C364     C      0.670260000000     0.939320000000     0.146670000000     0.00485167 
C365     C      0.613130000000     0.872950000000     0.193440000000    -0.00973159 
C366     C      0.667510000000     0.936040000000     0.198490000000    -0.0542559  
C367     C      0.708150000000     0.956840000000     0.221970000000     0.317541   
C368     C      0.895500000000     0.604080000000     0.145190000000    -0.0102666  
C369     C      0.953470000000     0.665650000000     0.138780000000     0.00826456 
C370     C      0.857470000000     0.639030000000     0.144140000000    -0.014189   
C371     C      0.914660000000     0.700150000000     0.137000000000    -0.0575155  
C372     C      0.930720000000     0.746250000000     0.150810000000     0.320192   
C373     C      0.932840000000     0.867520000000     0.430300000000    -0.011068   
C374     C      0.879720000000     0.932890000000     0.420220000000     0.00836378 
C375     C      0.928600000000     0.856960000000     0.379580000000    -0.0153145  
C376     C      0.880070000000     0.924870000000     0.369190000000    -0.0591225  
C377     C      0.839720000000     0.947110000000     0.346500000000     0.321358   
C378     C      0.872420000000     0.621470000000     0.369420000000    -0.0122625  
C379     C      0.925320000000     0.687200000000     0.379220000000     0.00658475 
C380     C      0.875900000000     0.611760000000     0.420350000000    -0.0158009  
C381     C      0.925160000000     0.678930000000     0.430440000000    -0.0579884  
C382     C      0.965730000000     0.700680000000     0.453160000000     0.318278   
C383     C      0.705530000000     0.894600000000     0.405750000000    -0.0125301  
C384     C      0.645800000000     0.832750000000     0.406920000000     0.00912185 
C385     C      0.684310000000     0.905930000000     0.451420000000    -0.00724794 
C386     C      0.611740000000     0.869000000000     0.422120000000    -0.0572132  
C387     C      0.588590000000     0.889080000000     0.381270000000     0.316907   
C388     C      0.934750000000     0.879570000000     0.191690000000    -0.0115081  
C389     C      0.872740000000     0.939010000000     0.194720000000     0.0059176  
C390     C      0.961610000000     0.918050000000     0.170730000000    -0.00902522 
C391     C      0.886010000000     0.952660000000     0.146410000000    -0.0539017  
C392     C      0.854900000000     0.929820000000     0.112910000000     0.320864   
C393     C      0.948000000000     0.940470000000     0.968630000000     0.395595   
C394     C      0.605650000000     0.586710000000     0.951430000000     0.392692   
C395     C      0.946070000000     0.603830000000     0.966310000000     0.391197   
C396     C      0.608840000000     0.933680000000     0.974530000000     0.399764   
C397     C      0.606110000000     0.942970000000     0.592110000000     0.394391   
C398     C      0.956460000000     0.599780000000     0.587420000000     0.399143   
C399     C      0.953830000000     0.956400000000     0.597390000000     0.399309   
C400     C      0.618800000000     0.609570000000     0.565580000000     0.398215   
C401     C      0.860850000000     0.862600000000     0.725840000000     0.402774   
C402     C      0.697900000000     0.693920000000     0.706550000000     0.39601    
C403     C      0.854260000000     0.701510000000     0.699060000000     0.39865    
C404     C      0.686630000000     0.859770000000     0.732520000000     0.40036    
C405     C      0.705290000000     0.836160000000     0.847500000000     0.395841   
C406     C      0.858570000000     0.693010000000     0.828130000000     0.388857   
C407     C      0.859260000000     0.850540000000     0.832530000000     0.387741   
C408     C      0.696870000000     0.681850000000     0.819470000000     0.393044   
C409     C      0.691110000000     0.624660000000     0.606440000000    -0.0103739  
C410     C      0.630670000000     0.683110000000     0.603110000000     0.00754655 
C411     C      0.690590000000     0.626620000000     0.658120000000    -0.0155459  
C412     C      0.628840000000     0.684820000000     0.655060000000    -0.0602837  
C413     C      0.610910000000     0.729910000000     0.670450000000     0.322671   
C414     C      0.621810000000     0.658290000000     0.849000000000    -0.00882054 
C415     C      0.687420000000     0.606300000000     0.853320000000     0.00540594 
C416     C      0.609210000000     0.648880000000     0.897900000000    -0.0172118  
C417     C      0.675090000000     0.592940000000     0.902170000000    -0.0574969  
C418     C      0.685400000000     0.543400000000     0.907240000000     0.315028   
C419     C      0.613200000000     0.875940000000     0.641640000000    -0.0144985  
C420     C      0.670260000000     0.939320000000     0.646670000000     0.00485626 
C421     C      0.613130000000     0.872950000000     0.693440000000    -0.00971832 
C422     C      0.667510000000     0.936040000000     0.698490000000    -0.054253   
C423     C      0.708150000000     0.956840000000     0.721970000000     0.317537   
C424     C      0.895500000000     0.604080000000     0.645190000000    -0.010265   
C425     C      0.953470000000     0.665650000000     0.638780000000     0.00827494 
C426     C      0.857470000000     0.639030000000     0.644140000000    -0.0141706  
C427     C      0.914660000000     0.700150000000     0.637000000000    -0.0575192  
C428     C      0.930720000000     0.746250000000     0.650810000000     0.320202   
C429     C      0.932840000000     0.867520000000     0.930300000000    -0.0110811  
C430     C      0.879720000000     0.932890000000     0.920220000000     0.00836829 
C431     C      0.928600000000     0.856960000000     0.879570000000    -0.0153088  
C432     C      0.880070000000     0.924870000000     0.869190000000    -0.0591155  
C433     C      0.839720000000     0.947110000000     0.846500000000     0.321354   
C434     C      0.872420000000     0.621470000000     0.869420000000    -0.0122706  
C435     C      0.925320000000     0.687200000000     0.879220000000     0.00656717 
C436     C      0.875900000000     0.611760000000     0.920350000000    -0.0158021  
C437     C      0.925160000000     0.678930000000     0.930440000000    -0.0579356  
C438     C      0.965730000000     0.700680000000     0.953160000000     0.318127   
C439     C      0.705530000000     0.894600000000     0.905750000000    -0.012529   
C440     C      0.645800000000     0.832750000000     0.906920000000     0.0090958  
C441     C      0.684310000000     0.905930000000     0.951420000000    -0.00726129 
C442     C      0.611740000000     0.869000000000     0.922130000000    -0.057179   
C443     C      0.588590000000     0.889080000000     0.881270000000     0.316937   
C444     C      0.934750000000     0.879570000000     0.691690000000    -0.0115108  
C445     C      0.872740000000     0.939010000000     0.694720000000     0.00591439 
C446     C      0.961610000000     0.918050000000     0.670730000000    -0.00902025 
C447     C      0.886010000000     0.952660000000     0.646410000000    -0.0538946  
C448     C      0.854900000000     0.929820000000     0.612910000000     0.320877   
Co1      Co     0.028090000000     0.455220000000     0.529130000000     0.846267   
Co2      Co     0.530960000000     0.087430000000     0.019940000000     0.852177   
Co3      Co     0.462350000000     0.522820000000     0.523930000000     0.844866   
Co4      Co     0.097760000000     0.519430000000     0.026450000000     0.846076   
Co5      Co     0.276120000000     0.337860000000     0.275460000000     0.848072   
Co6      Co     0.279110000000     0.205510000000     0.266160000000     0.843719   
Co7      Co     0.344850000000     0.273620000000     0.269210000000     0.833736   
Co8      Co     0.209820000000     0.269830000000     0.271950000000     0.83904    
Co9      Co     0.028090000000     0.455220000000     0.029130000000     0.845709   
Co10     Co     0.530960000000     0.087430000000     0.519940000000     0.852734   
Co11     Co     0.462350000000     0.522820000000     0.023930000000     0.8443     
Co12     Co     0.097760000000     0.519430000000     0.526450000000     0.846605   
Co13     Co     0.276120000000     0.337860000000     0.775460000000     0.848074   
Co14     Co     0.279110000000     0.205510000000     0.766160000000     0.843768   
Co15     Co     0.344850000000     0.273620000000     0.769210000000     0.833731   
Co16     Co     0.209820000000     0.269830000000     0.771950000000     0.839008   
Co17     Co     0.028090000000     0.955220000000     0.529130000000     0.846384   
Co18     Co     0.530960000000     0.587430000000     0.019940000000     0.852184   
Co19     Co     0.462350000000     0.022820000000     0.523930000000     0.844698   
Co20     Co     0.097760000000     0.019430000000     0.026450000000     0.845936   
Co21     Co     0.276120000000     0.837860000000     0.275460000000     0.84807    
Co22     Co     0.279110000000     0.705510000000     0.266160000000     0.84372    
Co23     Co     0.344850000000     0.773620000000     0.269210000000     0.833734   
Co24     Co     0.209820000000     0.769830000000     0.271950000000     0.839038   
Co25     Co     0.028090000000     0.955220000000     0.029130000000     0.845826   
Co26     Co     0.530960000000     0.587430000000     0.519940000000     0.852741   
Co27     Co     0.462350000000     0.022820000000     0.023930000000     0.844132   
Co28     Co     0.097760000000     0.019430000000     0.526450000000     0.846466   
Co29     Co     0.276120000000     0.837860000000     0.775460000000     0.848073   
Co30     Co     0.279110000000     0.705510000000     0.766160000000     0.843769   
Co31     Co     0.344850000000     0.773620000000     0.769210000000     0.833729   
Co32     Co     0.209820000000     0.769830000000     0.771950000000     0.839006   
Co33     Co     0.528090000000     0.455220000000     0.529130000000     0.846467   
Co34     Co     0.030960000000     0.087430000000     0.019940000000     0.851973   
Co35     Co     0.962350000000     0.522820000000     0.523930000000     0.844875   
Co36     Co     0.597760000000     0.519430000000     0.026450000000     0.845969   
Co37     Co     0.776120000000     0.337860000000     0.275460000000     0.848089   
Co38     Co     0.779110000000     0.205510000000     0.266160000000     0.843727   
Co39     Co     0.844850000000     0.273620000000     0.269210000000     0.833766   
Co40     Co     0.709820000000     0.269830000000     0.271950000000     0.839041   
Co41     Co     0.528090000000     0.455220000000     0.029130000000     0.845908   
Co42     Co     0.030960000000     0.087430000000     0.519940000000     0.85253    
Co43     Co     0.962350000000     0.522820000000     0.023930000000     0.844308   
Co44     Co     0.597760000000     0.519430000000     0.526450000000     0.846499   
Co45     Co     0.776120000000     0.337860000000     0.775460000000     0.848092   
Co46     Co     0.779110000000     0.205510000000     0.766160000000     0.843776   
Co47     Co     0.844850000000     0.273620000000     0.769210000000     0.833761   
Co48     Co     0.709820000000     0.269830000000     0.771950000000     0.839009   
Co49     Co     0.528090000000     0.955220000000     0.529130000000     0.846584   
Co50     Co     0.030960000000     0.587430000000     0.019940000000     0.85198    
Co51     Co     0.962350000000     0.022820000000     0.523930000000     0.844707   
Co52     Co     0.597760000000     0.019430000000     0.026450000000     0.845829   
Co53     Co     0.776120000000     0.837860000000     0.275460000000     0.848088   
Co54     Co     0.779110000000     0.705510000000     0.266160000000     0.843728   
Co55     Co     0.844850000000     0.773620000000     0.269210000000     0.833764   
Co56     Co     0.709820000000     0.769830000000     0.271950000000     0.839039   
Co57     Co     0.528090000000     0.955220000000     0.029130000000     0.846026   
Co58     Co     0.030960000000     0.587430000000     0.519940000000     0.852537   
Co59     Co     0.962350000000     0.022820000000     0.023930000000     0.84414    
Co60     Co     0.597760000000     0.019430000000     0.526450000000     0.846359   
Co61     Co     0.776120000000     0.837860000000     0.775460000000     0.84809    
Co62     Co     0.779110000000     0.705510000000     0.766160000000     0.843777   
Co63     Co     0.844850000000     0.773620000000     0.769210000000     0.83376    
Co64     Co     0.709820000000     0.769830000000     0.771950000000     0.839007   
H1       H      0.167240000000     0.099970000000     0.170600000000     0.050012   
H2       H      0.201210000000     0.090430000000     0.095360000000     0.056248   
H3       H      0.103270000000     0.159220000000     0.165460000000     0.0695999  
H4       H      0.225240000000     0.118230000000     0.170530000000     0.0567284  
H5       H      0.217380000000     0.148590000000     0.094080000000     0.0467693  
H6       H      0.155540000000     0.208570000000     0.090930000000     0.0511559  
H7       H      0.096810000000     0.191930000000     0.088850000000     0.0547326  
H8       H      0.067420000000     0.260170000000     0.214270000000     0.187786   
H9       H      0.122520000000     0.176620000000     0.419310000000     0.0494147  
H10      H      0.110580000000     0.192850000000     0.340180000000     0.0572409  
H11      H      0.198470000000     0.111690000000     0.424970000000     0.0690238  
H12      H      0.071470000000     0.149890000000     0.399930000000     0.0640765  
H13      H      0.102740000000     0.134490000000     0.327070000000     0.0502446  
H14      H      0.171370000000     0.082220000000     0.329310000000     0.0530798  
H15      H      0.224910000000     0.103360000000     0.349000000000     0.0533553  
H16      H      0.233850000000     0.999360000000     0.428160000000     0.187497   
H17      H      0.085450000000     0.394960000000     0.206370000000     0.0434252  
H18      H      0.078730000000     0.367040000000     0.129070000000     0.05788    
H19      H      0.137820000000     0.457140000000     0.208360000000     0.0659877  
H20      H      0.104840000000     0.338100000000     0.203860000000     0.0587612  
H21      H      0.137380000000     0.350460000000     0.128400000000     0.062591   
H22      H      0.199790000000     0.419200000000     0.134700000000     0.0605472  
H23      H      0.176240000000     0.474900000000     0.136900000000     0.0571672  
H24      H      0.229320000000     0.484210000000     0.281210000000     0.190342   
H25      H      0.346730000000     0.143720000000     0.108410000000     0.0492333  
H26      H      0.382820000000     0.072440000000     0.129840000000     0.0552413  
H27      H      0.404990000000     0.202550000000     0.100640000000     0.0730496  
H28      H      0.327680000000     0.125560000000     0.162840000000     0.0558045  
H29      H      0.403940000000     0.096920000000     0.181100000000     0.047275   
H30      H      0.464780000000     0.161710000000     0.174440000000     0.056379   
H31      H      0.482910000000     0.178100000000     0.118740000000     0.0593941  
H32      H      0.471600000000     0.280590000000     0.194170000000     0.184076   
H33      H      0.458100000000     0.372260000000     0.361910000000     0.0519428  
H34      H      0.467520000000     0.357990000000     0.441830000000     0.0610843  
H35      H      0.410910000000     0.442560000000     0.356320000000     0.0638786  
H36      H      0.430910000000     0.319960000000     0.375100000000     0.0556469  
H37      H      0.408120000000     0.346040000000     0.448790000000     0.0494441  
H38      H      0.350330000000     0.414700000000     0.435290000000     0.0539268  
H39      H      0.375000000000     0.469350000000     0.426940000000     0.0553991  
H40      H      0.272950000000     0.463200000000     0.353530000000     0.187983   
H41      H      0.346500000000     0.128070000000     0.437410000000     0.0493452  
H42      H      0.337900000000     0.111760000000     0.357590000000     0.0555549  
H43      H      0.394530000000     0.196890000000     0.443400000000     0.0632833  
H44      H      0.372520000000     0.074930000000     0.425480000000     0.0567081  
H45      H      0.397300000000     0.099560000000     0.351660000000     0.0481418  
H46      H      0.455120000000     0.169740000000     0.364070000000     0.0554282  
H47      H      0.429170000000     0.223810000000     0.372740000000     0.053982   
H48      H      0.532530000000     0.216660000000     0.445910000000     0.187179   
H49      H      0.195860000000     0.380680000000     0.476610000000     0.0448089  
H50      H      0.242900000000     0.390580000000     0.410190000000     0.0565564  
H51      H      0.085080000000     0.352290000000     0.442910000000     0.0715312  
H52      H      0.197390000000     0.438960000000     0.462900000000     0.0568479  
H53      H      0.200210000000     0.423200000000     0.382170000000     0.0722138  
H54      H      0.128550000000     0.308250000000     0.384280000000     0.054583   
H55      H      0.157130000000     0.313710000000     0.437210000000     0.0388695  
H56      H      0.537420000000     0.379650000000     0.336260000000     0.183257   
H57      H      0.470700000000     0.442350000000     0.197780000000     0.0419657  
H58      H      0.453250000000     0.366660000000     0.221810000000     0.0442383  
H59      H      0.381180000000     0.489620000000     0.143260000000     0.0689162  
H60      H      0.494030000000     0.404470000000     0.157040000000     0.0520741  
H61      H      0.433060000000     0.351850000000     0.166890000000     0.0745374  
H62      H      0.335520000000     0.443440000000     0.199670000000     0.0742859  
H63      H      0.389850000000     0.462220000000     0.218750000000     0.0513757  
H64      H      0.342660000000     0.871180000000     0.080010000000     0.189332   
H65      H      0.167240000000     0.099970000000     0.670600000000     0.0500044  
H66      H      0.201210000000     0.090430000000     0.595360000000     0.0562955  
H67      H      0.103270000000     0.159220000000     0.665460000000     0.0695908  
H68      H      0.225240000000     0.118230000000     0.670530000000     0.0567317  
H69      H      0.217380000000     0.148590000000     0.594080000000     0.0468296  
H70      H      0.155540000000     0.208570000000     0.590930000000     0.0512226  
H71      H      0.096810000000     0.191930000000     0.588850000000     0.0547908  
H72      H      0.067420000000     0.260170000000     0.714270000000     0.187785   
H73      H      0.122520000000     0.176620000000     0.919310000000     0.049465   
H74      H      0.110580000000     0.192850000000     0.840180000000     0.0572421  
H75      H      0.198470000000     0.111690000000     0.924970000000     0.069076   
H76      H      0.071470000000     0.149890000000     0.899930000000     0.0640831  
H77      H      0.102740000000     0.134490000000     0.827070000000     0.0502369  
H78      H      0.171370000000     0.082220000000     0.829310000000     0.0530746  
H79      H      0.224910000000     0.103360000000     0.849000000000     0.0533581  
H80      H      0.233850000000     0.999360000000     0.928160000000     0.187508   
H81      H      0.085450000000     0.394960000000     0.706370000000     0.0434164  
H82      H      0.078730000000     0.367040000000     0.629070000000     0.057911   
H83      H      0.137820000000     0.457140000000     0.708360000000     0.0659812  
H84      H      0.104840000000     0.338100000000     0.703870000000     0.0587582  
H85      H      0.137380000000     0.350460000000     0.628400000000     0.0626343  
H86      H      0.199790000000     0.419200000000     0.634700000000     0.0605799  
H87      H      0.176240000000     0.474900000000     0.636890000000     0.0571844  
H88      H      0.229320000000     0.484210000000     0.781210000000     0.190338   
H89      H      0.346730000000     0.143720000000     0.608400000000     0.0492797  
H90      H      0.382820000000     0.072440000000     0.629840000000     0.0552596  
H91      H      0.404990000000     0.202550000000     0.600640000000     0.0731217  
H92      H      0.327680000000     0.125560000000     0.662840000000     0.0558052  
H93      H      0.403940000000     0.096920000000     0.681100000000     0.0472673  
H94      H      0.464780000000     0.161710000000     0.674440000000     0.0563704  
H95      H      0.482910000000     0.178100000000     0.618740000000     0.0594255  
H96      H      0.471600000000     0.280590000000     0.694170000000     0.184079   
H97      H      0.458100000000     0.372260000000     0.861910000000     0.0519414  
H98      H      0.467520000000     0.357990000000     0.941830000000     0.0611239  
H99      H      0.410910000000     0.442560000000     0.856320000000     0.0638763  
H100     H      0.430910000000     0.319960000000     0.875090000000     0.0556541  
H101     H      0.408120000000     0.346040000000     0.948790000000     0.0495112  
H102     H      0.350330000000     0.414700000000     0.935300000000     0.0539745  
H103     H      0.375000000000     0.469350000000     0.926940000000     0.0554253  
H104     H      0.272950000000     0.463200000000     0.853530000000     0.187977   
H105     H      0.346500000000     0.128070000000     0.937410000000     0.0494089  
H106     H      0.337900000000     0.111760000000     0.857590000000     0.0555613  
H107     H      0.394530000000     0.196890000000     0.943390000000     0.063329   
H108     H      0.372520000000     0.074930000000     0.925480000000     0.056734   
H109     H      0.397300000000     0.099560000000     0.851660000000     0.0481342  
H110     H      0.455120000000     0.169740000000     0.864070000000     0.0554236  
H111     H      0.429170000000     0.223810000000     0.872740000000     0.0539908  
H112     H      0.532530000000     0.216660000000     0.945910000000     0.18722    
H113     H      0.195860000000     0.380680000000     0.976610000000     0.0449095  
H114     H      0.242900000000     0.390580000000     0.910180000000     0.0565873  
H115     H      0.085080000000     0.352290000000     0.942910000000     0.0715692  
H116     H      0.197390000000     0.438960000000     0.962900000000     0.0569122  
H117     H      0.200210000000     0.423200000000     0.882170000000     0.0722098  
H118     H      0.128550000000     0.308250000000     0.884280000000     0.0545976  
H119     H      0.157130000000     0.313710000000     0.937210000000     0.038934   
H120     H      0.537420000000     0.379650000000     0.836260000000     0.183255   
H121     H      0.470700000000     0.442350000000     0.697780000000     0.0419565  
H122     H      0.453250000000     0.366660000000     0.721810000000     0.0442369  
H123     H      0.381180000000     0.489620000000     0.643260000000     0.0689206  
H124     H      0.494030000000     0.404470000000     0.657040000000     0.0520795  
H125     H      0.433060000000     0.351850000000     0.666890000000     0.0745516  
H126     H      0.335520000000     0.443440000000     0.699670000000     0.0742869  
H127     H      0.389850000000     0.462220000000     0.718750000000     0.0513723  
H128     H      0.342660000000     0.871180000000     0.580010000000     0.18942    
H129     H      0.167240000000     0.599970000000     0.170600000000     0.0500324  
H130     H      0.201210000000     0.590430000000     0.095360000000     0.0562652  
H131     H      0.103270000000     0.659230000000     0.165460000000     0.0696101  
H132     H      0.225240000000     0.618230000000     0.170530000000     0.0567417  
H133     H      0.217380000000     0.648590000000     0.094080000000     0.0467695  
H134     H      0.155540000000     0.708570000000     0.090930000000     0.0511525  
H135     H      0.096810000000     0.691930000000     0.088850000000     0.0547305  
H136     H      0.067420000000     0.760180000000     0.214270000000     0.187664   
H137     H      0.122520000000     0.676620000000     0.419310000000     0.0494108  
H138     H      0.110580000000     0.692850000000     0.340180000000     0.0572415  
H139     H      0.198470000000     0.611690000000     0.424970000000     0.0690152  
H140     H      0.071470000000     0.649890000000     0.399930000000     0.0640799  
H141     H      0.102740000000     0.634490000000     0.327070000000     0.0502537  
H142     H      0.171370000000     0.582220000000     0.329310000000     0.0531048  
H143     H      0.224910000000     0.603370000000     0.349000000000     0.0533769  
H144     H      0.233850000000     0.499360000000     0.428160000000     0.187386   
H145     H      0.085450000000     0.894960000000     0.206370000000     0.0434315  
H146     H      0.078730000000     0.867040000000     0.129070000000     0.0578787  
H147     H      0.137820000000     0.957140000000     0.208360000000     0.0660049  
H148     H      0.104840000000     0.838100000000     0.203860000000     0.0587625  
H149     H      0.137380000000     0.850460000000     0.128400000000     0.0625861  
H150     H      0.199790000000     0.919200000000     0.134700000000     0.0605508  
H151     H      0.176240000000     0.974900000000     0.136900000000     0.0571916  
H152     H      0.229320000000     0.984210000000     0.281210000000     0.190363   
H153     H      0.346730000000     0.643720000000     0.108410000000     0.0492364  
H154     H      0.382820000000     0.572440000000     0.129840000000     0.055268   
H155     H      0.404990000000     0.702550000000     0.100640000000     0.0730475  
H156     H      0.327680000000     0.625560000000     0.162840000000     0.0558152  
H157     H      0.403940000000     0.596920000000     0.181100000000     0.0472944  
H158     H      0.464780000000     0.661710000000     0.174440000000     0.056385   
H159     H      0.482910000000     0.678100000000     0.118740000000     0.0593927  
H160     H      0.471600000000     0.780590000000     0.194170000000     0.184077   
H161     H      0.458100000000     0.872260000000     0.361910000000     0.0519458  
H162     H      0.467520000000     0.857990000000     0.441830000000     0.0610829  
H163     H      0.410910000000     0.942560000000     0.356320000000     0.0638918  
H164     H      0.430910000000     0.819960000000     0.375100000000     0.0556452  
H165     H      0.408120000000     0.846040000000     0.448790000000     0.0494419  
H166     H      0.350330000000     0.914700000000     0.435290000000     0.0539309  
H167     H      0.375000000000     0.969350000000     0.426940000000     0.0554229  
H168     H      0.272950000000     0.963200000000     0.353530000000     0.187999   
H169     H      0.346500000000     0.628070000000     0.437410000000     0.0493494  
H170     H      0.337900000000     0.611760000000     0.357590000000     0.0555675  
H171     H      0.394530000000     0.696890000000     0.443400000000     0.0632733  
H172     H      0.372520000000     0.574930000000     0.425480000000     0.056732   
H173     H      0.397300000000     0.599560000000     0.351660000000     0.0481608  
H174     H      0.455120000000     0.669740000000     0.364070000000     0.0554357  
H175     H      0.429170000000     0.723810000000     0.372740000000     0.0539809  
H176     H      0.532530000000     0.716660000000     0.445910000000     0.187178   
H177     H      0.195860000000     0.880680000000     0.476610000000     0.0448089  
H178     H      0.242900000000     0.890580000000     0.410190000000     0.0565577  
H179     H      0.085080000000     0.852290000000     0.442910000000     0.0715291  
H180     H      0.197390000000     0.938960000000     0.462900000000     0.0568612  
H181     H      0.200210000000     0.923200000000     0.382170000000     0.0722254  
H182     H      0.128550000000     0.808250000000     0.384280000000     0.0545825  
H183     H      0.157130000000     0.813710000000     0.437210000000     0.0388681  
H184     H      0.537420000000     0.879650000000     0.336260000000     0.183262   
H185     H      0.470700000000     0.942350000000     0.197780000000     0.0419801  
H186     H      0.453250000000     0.866660000000     0.221810000000     0.04424    
H187     H      0.381180000000     0.989620000000     0.143260000000     0.0689275  
H188     H      0.494030000000     0.904470000000     0.157040000000     0.0520775  
H189     H      0.433060000000     0.851850000000     0.166890000000     0.0745365  
H190     H      0.335520000000     0.943450000000     0.199670000000     0.0742873  
H191     H      0.389850000000     0.962220000000     0.218750000000     0.0513894  
H192     H      0.342660000000     0.371180000000     0.080010000000     0.189333   
H193     H      0.167240000000     0.599970000000     0.670600000000     0.0500248  
H194     H      0.201210000000     0.590430000000     0.595360000000     0.0563127  
H195     H      0.103270000000     0.659230000000     0.665460000000     0.0696011  
H196     H      0.225240000000     0.618230000000     0.670530000000     0.056745   
H197     H      0.217380000000     0.648590000000     0.594080000000     0.0468298  
H198     H      0.155540000000     0.708570000000     0.590930000000     0.0512192  
H199     H      0.096810000000     0.691930000000     0.588850000000     0.0547887  
H200     H      0.067420000000     0.760180000000     0.714270000000     0.187664   
H201     H      0.122520000000     0.676620000000     0.919310000000     0.0494612  
H202     H      0.110580000000     0.692850000000     0.840180000000     0.0572427  
H203     H      0.198470000000     0.611690000000     0.924970000000     0.0690674  
H204     H      0.071470000000     0.649890000000     0.899930000000     0.0640865  
H205     H      0.102740000000     0.634490000000     0.827070000000     0.050246   
H206     H      0.171370000000     0.582220000000     0.829310000000     0.0530996  
H207     H      0.224910000000     0.603370000000     0.849000000000     0.0533797  
H208     H      0.233850000000     0.499360000000     0.928160000000     0.187397   
H209     H      0.085450000000     0.894960000000     0.706370000000     0.0434227  
H210     H      0.078730000000     0.867040000000     0.629070000000     0.0579098  
H211     H      0.137820000000     0.957140000000     0.708360000000     0.0659984  
H212     H      0.104840000000     0.838100000000     0.703870000000     0.0587595  
H213     H      0.137380000000     0.850460000000     0.628400000000     0.0626294  
H214     H      0.199790000000     0.919200000000     0.634700000000     0.0605834  
H215     H      0.176240000000     0.974900000000     0.636890000000     0.0572088  
H216     H      0.229320000000     0.984210000000     0.781210000000     0.19036    
H217     H      0.346730000000     0.643720000000     0.608400000000     0.0492828  
H218     H      0.382820000000     0.572440000000     0.629840000000     0.0552863  
H219     H      0.404990000000     0.702550000000     0.600640000000     0.0731196  
H220     H      0.327680000000     0.625560000000     0.662840000000     0.0558159  
H221     H      0.403940000000     0.596920000000     0.681100000000     0.0472866  
H222     H      0.464780000000     0.661710000000     0.674440000000     0.0563763  
H223     H      0.482910000000     0.678100000000     0.618740000000     0.0594242  
H224     H      0.471600000000     0.780590000000     0.694170000000     0.184081   
H225     H      0.458100000000     0.872260000000     0.861910000000     0.0519444  
H226     H      0.467520000000     0.857990000000     0.941830000000     0.0611225  
H227     H      0.410910000000     0.942560000000     0.856320000000     0.0638895  
H228     H      0.430910000000     0.819960000000     0.875090000000     0.0556523  
H229     H      0.408120000000     0.846040000000     0.948790000000     0.0495091  
H230     H      0.350330000000     0.914700000000     0.935300000000     0.0539786  
H231     H      0.375000000000     0.969350000000     0.926940000000     0.055449   
H232     H      0.272950000000     0.963200000000     0.853530000000     0.187993   
H233     H      0.346500000000     0.628070000000     0.937410000000     0.0494131  
H234     H      0.337900000000     0.611760000000     0.857590000000     0.0555738  
H235     H      0.394530000000     0.696890000000     0.943390000000     0.063319   
H236     H      0.372520000000     0.574930000000     0.925480000000     0.0567578  
H237     H      0.397300000000     0.599560000000     0.851660000000     0.0481532  
H238     H      0.455120000000     0.669740000000     0.864070000000     0.055431   
H239     H      0.429170000000     0.723810000000     0.872740000000     0.0539897  
H240     H      0.532530000000     0.716660000000     0.945910000000     0.187219   
H241     H      0.195860000000     0.880680000000     0.976610000000     0.0449095  
H242     H      0.242900000000     0.890580000000     0.910180000000     0.0565886  
H243     H      0.085080000000     0.852290000000     0.942910000000     0.071567   
H244     H      0.197390000000     0.938960000000     0.962900000000     0.0569255  
H245     H      0.200210000000     0.923200000000     0.882170000000     0.0722215  
H246     H      0.128550000000     0.808250000000     0.884280000000     0.0545972  
H247     H      0.157130000000     0.813710000000     0.937210000000     0.0389326  
H248     H      0.537420000000     0.879650000000     0.836260000000     0.18326    
H249     H      0.470700000000     0.942350000000     0.697780000000     0.0419709  
H250     H      0.453250000000     0.866660000000     0.721810000000     0.0442386  
H251     H      0.381180000000     0.989620000000     0.643260000000     0.0689319  
H252     H      0.494030000000     0.904470000000     0.657040000000     0.0520829  
H253     H      0.433060000000     0.851850000000     0.666890000000     0.0745507  
H254     H      0.335520000000     0.943450000000     0.699670000000     0.0742883  
H255     H      0.389850000000     0.962220000000     0.718750000000     0.0513859  
H256     H      0.342660000000     0.371180000000     0.580010000000     0.18942    
H257     H      0.667240000000     0.099970000000     0.170600000000     0.0500208  
H258     H      0.701220000000     0.090430000000     0.095360000000     0.0562361  
H259     H      0.603270000000     0.159220000000     0.165460000000     0.0696239  
H260     H      0.725240000000     0.118230000000     0.170530000000     0.0567309  
H261     H      0.717380000000     0.148590000000     0.094080000000     0.0467618  
H262     H      0.655540000000     0.208570000000     0.090930000000     0.0511545  
H263     H      0.596810000000     0.191930000000     0.088850000000     0.0547515  
H264     H      0.567420000000     0.260170000000     0.214270000000     0.187817   
H265     H      0.622520000000     0.176620000000     0.419310000000     0.0494091  
H266     H      0.610580000000     0.192850000000     0.340180000000     0.0572495  
H267     H      0.698470000000     0.111690000000     0.424970000000     0.0690186  
H268     H      0.571460000000     0.149890000000     0.399930000000     0.0640802  
H269     H      0.602740000000     0.134490000000     0.327070000000     0.0502623  
H270     H      0.671370000000     0.082220000000     0.329310000000     0.0530973  
H271     H      0.724910000000     0.103360000000     0.349000000000     0.0533672  
H272     H      0.733850000000     0.999360000000     0.428160000000     0.187495   
H273     H      0.585450000000     0.394960000000     0.206370000000     0.0434494  
H274     H      0.578730000000     0.367040000000     0.129070000000     0.0579078  
H275     H      0.637810000000     0.457140000000     0.208360000000     0.0659829  
H276     H      0.604840000000     0.338100000000     0.203860000000     0.0587757  
H277     H      0.637380000000     0.350460000000     0.128400000000     0.0625937  
H278     H      0.699790000000     0.419200000000     0.134700000000     0.0605471  
H279     H      0.676240000000     0.474900000000     0.136900000000     0.0571714  
H280     H      0.729320000000     0.484210000000     0.281210000000     0.190341   
H281     H      0.846730000000     0.143720000000     0.108410000000     0.0492332  
H282     H      0.882810000000     0.072440000000     0.129840000000     0.055233   
H283     H      0.904990000000     0.202550000000     0.100640000000     0.0730603  
H284     H      0.827680000000     0.125560000000     0.162840000000     0.0558053  
H285     H      0.903940000000     0.096920000000     0.181100000000     0.04728    
H286     H      0.964780000000     0.161710000000     0.174440000000     0.056382   
H287     H      0.982910000000     0.178100000000     0.118740000000     0.0594027  
H288     H      0.971600000000     0.280590000000     0.194170000000     0.184106   
H289     H      0.958100000000     0.372260000000     0.361910000000     0.0519688  
H290     H      0.967520000000     0.357990000000     0.441830000000     0.0611135  
H291     H      0.910910000000     0.442560000000     0.356320000000     0.0638845  
H292     H      0.930920000000     0.319960000000     0.375100000000     0.0556498  
H293     H      0.908120000000     0.346040000000     0.448790000000     0.04945    
H294     H      0.850340000000     0.414700000000     0.435290000000     0.0539547  
H295     H      0.875000000000     0.469350000000     0.426940000000     0.0554295  
H296     H      0.772950000000     0.463200000000     0.353530000000     0.187982   
H297     H      0.846500000000     0.128070000000     0.437410000000     0.0493404  
H298     H      0.837900000000     0.111760000000     0.357590000000     0.0555584  
H299     H      0.894530000000     0.196890000000     0.443400000000     0.0632846  
H300     H      0.872510000000     0.074930000000     0.425480000000     0.0567064  
H301     H      0.897300000000     0.099560000000     0.351660000000     0.0481572  
H302     H      0.955120000000     0.169740000000     0.364070000000     0.0554582  
H303     H      0.929180000000     0.223810000000     0.372740000000     0.0539928  
H304     H      0.032530000000     0.216660000000     0.445910000000     0.187257   
H305     H      0.695860000000     0.380680000000     0.476610000000     0.0448134  
H306     H      0.742900000000     0.390580000000     0.410190000000     0.056535   
H307     H      0.585080000000     0.352290000000     0.442910000000     0.0715423  
H308     H      0.697390000000     0.438960000000     0.462900000000     0.0568528  
H309     H      0.700210000000     0.423200000000     0.382170000000     0.0721966  
H310     H      0.628560000000     0.308250000000     0.384280000000     0.0545983  
H311     H      0.657130000000     0.313710000000     0.437210000000     0.0388753  
H312     H      0.037420000000     0.379650000000     0.336260000000     0.183207   
H313     H      0.970700000000     0.442350000000     0.197780000000     0.0419929  
H314     H      0.953250000000     0.366660000000     0.221810000000     0.0442594  
H315     H      0.881170000000     0.489620000000     0.143260000000     0.0689119  
H316     H      0.994030000000     0.404470000000     0.157040000000     0.0521122  
H317     H      0.933060000000     0.351850000000     0.166890000000     0.0745472  
H318     H      0.835520000000     0.443440000000     0.199670000000     0.0742883  
H319     H      0.889850000000     0.462220000000     0.218750000000     0.051386   
H320     H      0.842660000000     0.871180000000     0.080010000000     0.189331   
H321     H      0.667240000000     0.099970000000     0.670600000000     0.0500132  
H322     H      0.701220000000     0.090430000000     0.595360000000     0.0562837  
H323     H      0.603270000000     0.159220000000     0.665460000000     0.0696148  
H324     H      0.725240000000     0.118230000000     0.670530000000     0.0567342  
H325     H      0.717380000000     0.148590000000     0.594080000000     0.0468221  
H326     H      0.655540000000     0.208570000000     0.590930000000     0.0512212  
H327     H      0.596810000000     0.191930000000     0.588850000000     0.0548097  
H328     H      0.567420000000     0.260170000000     0.714270000000     0.187817   
H329     H      0.622520000000     0.176620000000     0.919310000000     0.0494594  
H330     H      0.610580000000     0.192850000000     0.840180000000     0.0572507  
H331     H      0.698470000000     0.111690000000     0.924970000000     0.0690708  
H332     H      0.571460000000     0.149890000000     0.899930000000     0.0640868  
H333     H      0.602740000000     0.134490000000     0.827070000000     0.0502546  
H334     H      0.671370000000     0.082220000000     0.829310000000     0.0530921  
H335     H      0.724910000000     0.103360000000     0.849000000000     0.05337    
H336     H      0.733850000000     0.999360000000     0.928160000000     0.187507   
H337     H      0.585450000000     0.394960000000     0.706370000000     0.0434406  
H338     H      0.578730000000     0.367040000000     0.629070000000     0.0579389  
H339     H      0.637810000000     0.457140000000     0.708360000000     0.0659764  
H340     H      0.604840000000     0.338100000000     0.703870000000     0.0587727  
H341     H      0.637380000000     0.350460000000     0.628400000000     0.0626371  
H342     H      0.699790000000     0.419200000000     0.634700000000     0.0605797  
H343     H      0.676240000000     0.474900000000     0.636890000000     0.0571886  
H344     H      0.729320000000     0.484210000000     0.781210000000     0.190338   
H345     H      0.846730000000     0.143720000000     0.608400000000     0.0492796  
H346     H      0.882810000000     0.072440000000     0.629840000000     0.0552512  
H347     H      0.904990000000     0.202550000000     0.600640000000     0.0731324  
H348     H      0.827680000000     0.125560000000     0.662840000000     0.055806   
H349     H      0.903940000000     0.096920000000     0.681100000000     0.0472722  
H350     H      0.964780000000     0.161710000000     0.674440000000     0.0563734  
H351     H      0.982910000000     0.178100000000     0.618740000000     0.0594342  
H352     H      0.971600000000     0.280590000000     0.694170000000     0.184109   
H353     H      0.958100000000     0.372260000000     0.861910000000     0.0519674  
H354     H      0.967520000000     0.357990000000     0.941830000000     0.0611532  
H355     H      0.910910000000     0.442560000000     0.856320000000     0.0638822  
H356     H      0.930920000000     0.319960000000     0.875090000000     0.055657   
H357     H      0.908120000000     0.346040000000     0.948790000000     0.0495172  
H358     H      0.850340000000     0.414700000000     0.935300000000     0.0540024  
H359     H      0.875000000000     0.469350000000     0.926940000000     0.0554556  
H360     H      0.772950000000     0.463200000000     0.853530000000     0.187976   
H361     H      0.846500000000     0.128070000000     0.937410000000     0.0494041  
H362     H      0.837900000000     0.111760000000     0.857590000000     0.0555647  
H363     H      0.894530000000     0.196890000000     0.943390000000     0.0633303  
H364     H      0.872510000000     0.074930000000     0.925480000000     0.0567322  
H365     H      0.897300000000     0.099560000000     0.851660000000     0.0481496  
H366     H      0.955120000000     0.169740000000     0.864070000000     0.0554536  
H367     H      0.929180000000     0.223810000000     0.872740000000     0.0540017  
H368     H      0.032530000000     0.216660000000     0.945910000000     0.187298   
H369     H      0.695860000000     0.380680000000     0.976610000000     0.0449141  
H370     H      0.742900000000     0.390580000000     0.910180000000     0.0565658  
H371     H      0.585080000000     0.352290000000     0.942910000000     0.0715803  
H372     H      0.697390000000     0.438960000000     0.962900000000     0.0569171  
H373     H      0.700210000000     0.423200000000     0.882170000000     0.0721926  
H374     H      0.628560000000     0.308250000000     0.884280000000     0.054613   
H375     H      0.657130000000     0.313710000000     0.937210000000     0.0389398  
H376     H      0.037420000000     0.379650000000     0.836260000000     0.183206   
H377     H      0.970700000000     0.442350000000     0.697780000000     0.0419837  
H378     H      0.953250000000     0.366660000000     0.721810000000     0.0442581  
H379     H      0.881170000000     0.489620000000     0.643260000000     0.0689163  
H380     H      0.994030000000     0.404470000000     0.657040000000     0.0521176  
H381     H      0.933060000000     0.351850000000     0.666890000000     0.0745613  
H382     H      0.835520000000     0.443440000000     0.699670000000     0.0742894  
H383     H      0.889850000000     0.462220000000     0.718750000000     0.0513826  
H384     H      0.842660000000     0.871180000000     0.580010000000     0.189418   
H385     H      0.667240000000     0.599970000000     0.170600000000     0.0500412  
H386     H      0.701220000000     0.590430000000     0.095360000000     0.0562534  
H387     H      0.603270000000     0.659230000000     0.165460000000     0.0696341  
H388     H      0.725240000000     0.618230000000     0.170530000000     0.0567441  
H389     H      0.717380000000     0.648590000000     0.094080000000     0.0467619  
H390     H      0.655540000000     0.708570000000     0.090930000000     0.0511511  
H391     H      0.596810000000     0.691930000000     0.088850000000     0.0547493  
H392     H      0.567420000000     0.760180000000     0.214270000000     0.187696   
H393     H      0.622520000000     0.676620000000     0.419310000000     0.0494052  
H394     H      0.610580000000     0.692850000000     0.340180000000     0.0572501  
H395     H      0.698470000000     0.611690000000     0.424970000000     0.06901    
H396     H      0.571460000000     0.649890000000     0.399930000000     0.0640836  
H397     H      0.602740000000     0.634490000000     0.327070000000     0.0502714  
H398     H      0.671370000000     0.582220000000     0.329310000000     0.0531223  
H399     H      0.724910000000     0.603370000000     0.349000000000     0.0533888  
H400     H      0.733850000000     0.499360000000     0.428160000000     0.187385   
H401     H      0.585450000000     0.894960000000     0.206370000000     0.0434557  
H402     H      0.578730000000     0.867040000000     0.129070000000     0.0579065  
H403     H      0.637810000000     0.957140000000     0.208360000000     0.0660001  
H404     H      0.604840000000     0.838100000000     0.203860000000     0.0587769  
H405     H      0.637380000000     0.850460000000     0.128400000000     0.0625888  
H406     H      0.699790000000     0.919200000000     0.134700000000     0.0605506  
H407     H      0.676240000000     0.974900000000     0.136900000000     0.0571958  
H408     H      0.729320000000     0.984210000000     0.281210000000     0.190362   
H409     H      0.846730000000     0.643720000000     0.108410000000     0.0492363  
H410     H      0.882810000000     0.572440000000     0.129840000000     0.0552597  
H411     H      0.904990000000     0.702550000000     0.100640000000     0.0730582  
H412     H      0.827680000000     0.625560000000     0.162840000000     0.0558159  
H413     H      0.903940000000     0.596920000000     0.181100000000     0.0472994  
H414     H      0.964780000000     0.661710000000     0.174440000000     0.056388   
H415     H      0.982910000000     0.678100000000     0.118740000000     0.0594014  
H416     H      0.971600000000     0.780590000000     0.194170000000     0.184107   
H417     H      0.958100000000     0.872260000000     0.361910000000     0.0519718  
H418     H      0.967520000000     0.857990000000     0.441830000000     0.0611122  
H419     H      0.910910000000     0.942560000000     0.356320000000     0.0638977  
H420     H      0.930920000000     0.819960000000     0.375100000000     0.0556481  
H421     H      0.908120000000     0.846040000000     0.448790000000     0.0494479  
H422     H      0.850340000000     0.914700000000     0.435290000000     0.0539588  
H423     H      0.875000000000     0.969350000000     0.426940000000     0.0554533  
H424     H      0.772950000000     0.963200000000     0.353530000000     0.187998   
H425     H      0.846500000000     0.628070000000     0.437410000000     0.0493446  
H426     H      0.837900000000     0.611760000000     0.357590000000     0.055571   
H427     H      0.894530000000     0.696890000000     0.443400000000     0.0632746  
H428     H      0.872510000000     0.574930000000     0.425480000000     0.0567302  
H429     H      0.897300000000     0.599560000000     0.351660000000     0.0481762  
H430     H      0.955120000000     0.669740000000     0.364070000000     0.0554657  
H431     H      0.929180000000     0.723810000000     0.372740000000     0.0539917  
H432     H      0.032530000000     0.716660000000     0.445910000000     0.187256   
H433     H      0.695860000000     0.880680000000     0.476610000000     0.0448135  
H434     H      0.742900000000     0.890580000000     0.410190000000     0.0565363  
H435     H      0.585080000000     0.852290000000     0.442910000000     0.0715402  
H436     H      0.697390000000     0.938960000000     0.462900000000     0.056866   
H437     H      0.700210000000     0.923200000000     0.382170000000     0.0722082  
H438     H      0.628560000000     0.808250000000     0.384280000000     0.0545979  
H439     H      0.657130000000     0.813710000000     0.437210000000     0.0388739  
H440     H      0.037420000000     0.879650000000     0.336260000000     0.183212   
H441     H      0.970700000000     0.942350000000     0.197780000000     0.0420073  
H442     H      0.953250000000     0.866660000000     0.221810000000     0.0442611  
H443     H      0.881170000000     0.989620000000     0.143260000000     0.0689232  
H444     H      0.994030000000     0.904470000000     0.157040000000     0.0521156  
H445     H      0.933060000000     0.851850000000     0.166890000000     0.0745463  
H446     H      0.835520000000     0.943450000000     0.199670000000     0.0742897  
H447     H      0.889850000000     0.962220000000     0.218750000000     0.0513997  
H448     H      0.842660000000     0.371180000000     0.080010000000     0.189331   
H449     H      0.667240000000     0.599970000000     0.670600000000     0.0500336  
H450     H      0.701220000000     0.590430000000     0.595360000000     0.0563009  
H451     H      0.603270000000     0.659230000000     0.665460000000     0.0696251  
H452     H      0.725240000000     0.618230000000     0.670530000000     0.0567474  
H453     H      0.717380000000     0.648590000000     0.594080000000     0.0468223  
H454     H      0.655540000000     0.708570000000     0.590930000000     0.0512178  
H455     H      0.596810000000     0.691930000000     0.588850000000     0.0548076  
H456     H      0.567420000000     0.760180000000     0.714270000000     0.187695   
H457     H      0.622520000000     0.676620000000     0.919310000000     0.0494556  
H458     H      0.610580000000     0.692850000000     0.840180000000     0.0572513  
H459     H      0.698470000000     0.611690000000     0.924970000000     0.0690622  
H460     H      0.571460000000     0.649890000000     0.899930000000     0.0640902  
H461     H      0.602740000000     0.634490000000     0.827070000000     0.0502637  
H462     H      0.671370000000     0.582220000000     0.829310000000     0.0531171  
H463     H      0.724910000000     0.603370000000     0.849000000000     0.0533916  
H464     H      0.733850000000     0.499360000000     0.928160000000     0.187396   
H465     H      0.585450000000     0.894960000000     0.706370000000     0.0434469  
H466     H      0.578730000000     0.867040000000     0.629070000000     0.0579376  
H467     H      0.637810000000     0.957140000000     0.708360000000     0.0659936  
H468     H      0.604840000000     0.838100000000     0.703870000000     0.058774   
H469     H      0.637380000000     0.850460000000     0.628400000000     0.0626321  
H470     H      0.699790000000     0.919200000000     0.634700000000     0.0605833  
H471     H      0.676240000000     0.974900000000     0.636890000000     0.057213   
H472     H      0.729320000000     0.984210000000     0.781210000000     0.190359   
H473     H      0.846730000000     0.643720000000     0.608400000000     0.0492827  
H474     H      0.882810000000     0.572440000000     0.629840000000     0.0552779  
H475     H      0.904990000000     0.702550000000     0.600640000000     0.0731303  
H476     H      0.827680000000     0.625560000000     0.662840000000     0.0558166  
H477     H      0.903940000000     0.596920000000     0.681100000000     0.0472916  
H478     H      0.964780000000     0.661710000000     0.674440000000     0.0563793  
H479     H      0.982910000000     0.678100000000     0.618740000000     0.0594328  
H480     H      0.971600000000     0.780590000000     0.694170000000     0.184111   
H481     H      0.958100000000     0.872260000000     0.861910000000     0.0519704  
H482     H      0.967520000000     0.857990000000     0.941830000000     0.0611518  
H483     H      0.910910000000     0.942560000000     0.856320000000     0.0638954  
H484     H      0.930920000000     0.819960000000     0.875090000000     0.0556553  
H485     H      0.908120000000     0.846040000000     0.948790000000     0.049515   
H486     H      0.850340000000     0.914700000000     0.935300000000     0.0540066  
H487     H      0.875000000000     0.969350000000     0.926940000000     0.0554794  
H488     H      0.772950000000     0.963200000000     0.853530000000     0.187992   
H489     H      0.846500000000     0.628070000000     0.937410000000     0.0494083  
H490     H      0.837900000000     0.611760000000     0.857590000000     0.0555773  
H491     H      0.894530000000     0.696890000000     0.943390000000     0.0633203  
H492     H      0.872510000000     0.574930000000     0.925480000000     0.056756   
H493     H      0.897300000000     0.599560000000     0.851660000000     0.0481686  
H494     H      0.955120000000     0.669740000000     0.864070000000     0.0554611  
H495     H      0.929180000000     0.723810000000     0.872740000000     0.0540006  
H496     H      0.032530000000     0.716660000000     0.945910000000     0.187297   
H497     H      0.695860000000     0.880680000000     0.976610000000     0.0449141  
H498     H      0.742900000000     0.890580000000     0.910180000000     0.0565671  
H499     H      0.585080000000     0.852290000000     0.942910000000     0.0715781  
H500     H      0.697390000000     0.938960000000     0.962900000000     0.0569303  
H501     H      0.700210000000     0.923200000000     0.882170000000     0.0722043  
H502     H      0.628560000000     0.808250000000     0.884280000000     0.0546126  
H503     H      0.657130000000     0.813710000000     0.937210000000     0.0389384  
H504     H      0.037420000000     0.879650000000     0.836260000000     0.18321    
H505     H      0.970700000000     0.942350000000     0.697780000000     0.0419981  
H506     H      0.953250000000     0.866660000000     0.721810000000     0.0442598  
H507     H      0.881170000000     0.989620000000     0.643260000000     0.0689276  
H508     H      0.994030000000     0.904470000000     0.657040000000     0.0521209  
H509     H      0.933060000000     0.851850000000     0.666890000000     0.0745604  
H510     H      0.835520000000     0.943450000000     0.699670000000     0.0742907  
H511     H      0.889850000000     0.962220000000     0.718750000000     0.0513962  
H512     H      0.842660000000     0.371180000000     0.580010000000     0.189418   
N1       N      0.173760000000     0.170830000000     0.174080000000    -0.1498     
N2       N      0.146340000000     0.138370000000     0.089020000000    -0.165063   
N3       N      0.127650000000     0.105740000000     0.415000000000    -0.14797    
N4       N      0.170680000000     0.151410000000     0.342380000000    -0.163034   
N5       N      0.157220000000     0.388830000000     0.211070000000    -0.148542   
N6       N      0.128360000000     0.420770000000     0.126190000000    -0.162903   
N7       N      0.374730000000     0.182140000000     0.162060000000    -0.150748   
N8       N      0.436270000000     0.122090000000     0.122450000000    -0.164659   
N9       N      0.386320000000     0.376030000000     0.360480000000    -0.149755   
N10      N      0.422120000000     0.415020000000     0.439850000000    -0.162982   
N11      N      0.418550000000     0.130150000000     0.439360000000    -0.149277   
N12      N      0.383400000000     0.168770000000     0.358970000000    -0.163301   
N13      N      0.134200000000     0.404630000000     0.449040000000    -0.147672   
N14      N      0.186010000000     0.353570000000     0.385700000000    -0.160716   
N15      N      0.434020000000     0.441440000000     0.136340000000    -0.149598   
N16      N      0.388160000000     0.392850000000     0.204250000000    -0.15566    
N17      N      0.173760000000     0.170830000000     0.674080000000    -0.149802   
N18      N      0.146340000000     0.138370000000     0.589020000000    -0.165041   
N19      N      0.127650000000     0.105740000000     0.915000000000    -0.147946   
N20      N      0.170680000000     0.151410000000     0.842380000000    -0.163036   
N21      N      0.157220000000     0.388830000000     0.711070000000    -0.148545   
N22      N      0.128360000000     0.420770000000     0.626200000000    -0.162857   
N23      N      0.374730000000     0.182140000000     0.662060000000    -0.150741   
N24      N      0.436270000000     0.122090000000     0.622450000000    -0.16466    
N25      N      0.386320000000     0.376030000000     0.860480000000    -0.149776   
N26      N      0.422120000000     0.415020000000     0.939850000000    -0.162948   
N27      N      0.418550000000     0.130150000000     0.939360000000    -0.149271   
N28      N      0.383400000000     0.168770000000     0.858980000000    -0.16324    
N29      N      0.134200000000     0.404630000000     0.949040000000    -0.147638   
N30      N      0.186010000000     0.353570000000     0.885700000000    -0.160709   
N31      N      0.434020000000     0.441440000000     0.636340000000    -0.149601   
N32      N      0.388160000000     0.392850000000     0.704250000000    -0.15566    
N33      N      0.173760000000     0.670830000000     0.174080000000    -0.149797   
N34      N      0.146340000000     0.638370000000     0.089020000000    -0.165085   
N35      N      0.127650000000     0.605740000000     0.415000000000    -0.147989   
N36      N      0.170680000000     0.651410000000     0.342380000000    -0.163031   
N37      N      0.157220000000     0.888830000000     0.211070000000    -0.148541   
N38      N      0.128360000000     0.920770000000     0.126190000000    -0.162898   
N39      N      0.374730000000     0.682140000000     0.162060000000    -0.150747   
N40      N      0.436270000000     0.622090000000     0.122450000000    -0.164676   
N41      N      0.386320000000     0.876030000000     0.360480000000    -0.149755   
N42      N      0.422120000000     0.915020000000     0.439850000000    -0.162977   
N43      N      0.418550000000     0.630150000000     0.439360000000    -0.149275   
N44      N      0.383400000000     0.668770000000     0.358970000000    -0.163298   
N45      N      0.134200000000     0.904630000000     0.449040000000    -0.147668   
N46      N      0.186010000000     0.853570000000     0.385700000000    -0.160716   
N47      N      0.434020000000     0.941440000000     0.136340000000    -0.149595   
N48      N      0.388160000000     0.892850000000     0.204250000000    -0.155659   
N49      N      0.173760000000     0.670830000000     0.674080000000    -0.1498     
N50      N      0.146340000000     0.638370000000     0.589020000000    -0.165064   
N51      N      0.127650000000     0.605740000000     0.915000000000    -0.147964   
N52      N      0.170680000000     0.651410000000     0.842380000000    -0.163033   
N53      N      0.157220000000     0.888830000000     0.711070000000    -0.148544   
N54      N      0.128360000000     0.920770000000     0.626200000000    -0.162852   
N55      N      0.374730000000     0.682140000000     0.662060000000    -0.15074    
N56      N      0.436270000000     0.622090000000     0.622450000000    -0.164676   
N57      N      0.386320000000     0.876030000000     0.860480000000    -0.149776   
N58      N      0.422120000000     0.915020000000     0.939850000000    -0.162943   
N59      N      0.418550000000     0.630150000000     0.939360000000    -0.149269   
N60      N      0.383400000000     0.668770000000     0.858980000000    -0.163237   
N61      N      0.134200000000     0.904630000000     0.949040000000    -0.147634   
N62      N      0.186010000000     0.853570000000     0.885700000000    -0.160708   
N63      N      0.434020000000     0.941440000000     0.636340000000    -0.149598   
N64      N      0.388160000000     0.892850000000     0.704250000000    -0.155658   
N65      N      0.673760000000     0.170830000000     0.174080000000    -0.149779   
N66      N      0.646340000000     0.138370000000     0.089020000000    -0.165063   
N67      N      0.627650000000     0.105740000000     0.415000000000    -0.147975   
N68      N      0.670680000000     0.151410000000     0.342380000000    -0.163042   
N69      N      0.657220000000     0.388830000000     0.211070000000    -0.148545   
N70      N      0.628360000000     0.420770000000     0.126190000000    -0.162898   
N71      N      0.874730000000     0.182140000000     0.162060000000    -0.150743   
N72      N      0.936270000000     0.122090000000     0.122450000000    -0.164665   
N73      N      0.886320000000     0.376030000000     0.360480000000    -0.149774   
N74      N      0.922120000000     0.415020000000     0.439850000000    -0.162957   
N75      N      0.918550000000     0.130150000000     0.439360000000    -0.149253   
N76      N      0.883400000000     0.168770000000     0.358970000000    -0.163276   
N77      N      0.634200000000     0.404630000000     0.449040000000    -0.14767    
N78      N      0.686010000000     0.353570000000     0.385700000000    -0.160723   
N79      N      0.934020000000     0.441440000000     0.136340000000    -0.14959    
N80      N      0.888160000000     0.392850000000     0.204250000000    -0.155634   
N81      N      0.673760000000     0.170830000000     0.674080000000    -0.149782   
N82      N      0.646340000000     0.138370000000     0.589020000000    -0.165042   
N83      N      0.627650000000     0.105740000000     0.915000000000    -0.14795    
N84      N      0.670680000000     0.151410000000     0.842380000000    -0.163044   
N85      N      0.657220000000     0.388830000000     0.711070000000    -0.148549   
N86      N      0.628360000000     0.420770000000     0.626200000000    -0.162852   
N87      N      0.874730000000     0.182140000000     0.662060000000    -0.150736   
N88      N      0.936270000000     0.122090000000     0.622450000000    -0.164665   
N89      N      0.886320000000     0.376030000000     0.860480000000    -0.149795   
N90      N      0.922120000000     0.415020000000     0.939850000000    -0.162923   
N91      N      0.918550000000     0.130150000000     0.939360000000    -0.149247   
N92      N      0.883400000000     0.168770000000     0.858980000000    -0.163215   
N93      N      0.634200000000     0.404630000000     0.949040000000    -0.147636   
N94      N      0.686010000000     0.353570000000     0.885700000000    -0.160716   
N95      N      0.934020000000     0.441440000000     0.636340000000    -0.149593   
N96      N      0.888160000000     0.392850000000     0.704250000000    -0.155633   
N97      N      0.673760000000     0.670830000000     0.174080000000    -0.149777   
N98      N      0.646340000000     0.638370000000     0.089020000000    -0.165086   
N99      N      0.627650000000     0.605740000000     0.415000000000    -0.147993   
N100     N      0.670680000000     0.651410000000     0.342380000000    -0.163039   
N101     N      0.657220000000     0.888830000000     0.211070000000    -0.148544   
N102     N      0.628360000000     0.920770000000     0.126190000000    -0.162894   
N103     N      0.874730000000     0.682140000000     0.162060000000    -0.150743   
N104     N      0.936270000000     0.622090000000     0.122450000000    -0.164682   
N105     N      0.886320000000     0.876030000000     0.360480000000    -0.149775   
N106     N      0.922120000000     0.915020000000     0.439850000000    -0.162953   
N107     N      0.918550000000     0.630150000000     0.439360000000    -0.149251   
N108     N      0.883400000000     0.668770000000     0.358970000000    -0.163273   
N109     N      0.634200000000     0.904630000000     0.449040000000    -0.147665   
N110     N      0.686010000000     0.853570000000     0.385700000000    -0.160723   
N111     N      0.934020000000     0.941440000000     0.136340000000    -0.149587   
N112     N      0.888160000000     0.892850000000     0.204250000000    -0.155632   
N113     N      0.673760000000     0.670830000000     0.674080000000    -0.14978    
N114     N      0.646340000000     0.638370000000     0.589020000000    -0.165064   
N115     N      0.627650000000     0.605740000000     0.915000000000    -0.147969   
N116     N      0.670680000000     0.651410000000     0.842380000000    -0.163041   
N117     N      0.657220000000     0.888830000000     0.711070000000    -0.148548   
N118     N      0.628360000000     0.920770000000     0.626200000000    -0.162848   
N119     N      0.874730000000     0.682140000000     0.662060000000    -0.150736   
N120     N      0.936270000000     0.622090000000     0.622450000000    -0.164682   
N121     N      0.886320000000     0.876030000000     0.860480000000    -0.149795   
N122     N      0.922120000000     0.915020000000     0.939850000000    -0.162919   
N123     N      0.918550000000     0.630150000000     0.939360000000    -0.149245   
N124     N      0.883400000000     0.668770000000     0.858980000000    -0.163212   
N125     N      0.634200000000     0.904630000000     0.949040000000    -0.147631   
N126     N      0.686010000000     0.853570000000     0.885700000000    -0.160716   
N127     N      0.934020000000     0.941440000000     0.636340000000    -0.14959    
N128     N      0.888160000000     0.892850000000     0.704250000000    -0.155631   
O1       O      0.484360000000     0.424100000000     0.485840000000    -0.36534    
O2       O      0.067760000000     0.103350000000     0.464530000000    -0.373375   
O3       O      0.432320000000     0.064880000000     0.478550000000    -0.366396   
O4       O      0.127830000000     0.468140000000     0.492200000000    -0.357961   
O5       O      0.484660000000     0.118510000000     0.479630000000    -0.35307    
O6       O      0.066780000000     0.425310000000     0.481360000000    -0.369651   
O7       O      0.123700000000     0.053960000000     0.472900000000    -0.356729   
O8       O      0.434910000000     0.480190000000     0.478460000000    -0.374784   
O9       O      0.069810000000     0.426150000000     0.075310000000    -0.352881   
O10      O      0.493160000000     0.115110000000     0.070110000000    -0.359249   
O11      O      0.433260000000     0.485560000000     0.073230000000    -0.351421   
O12      O      0.132410000000     0.069590000000     0.057530000000    -0.360958   
O13      O      0.079570000000     0.122920000000     0.052690000000    -0.362858   
O14      O      0.493060000000     0.441770000000     0.086250000000    -0.360165   
O15      O      0.121970000000     0.480260000000     0.077440000000    -0.359148   
O16      O      0.438370000000     0.063700000000     0.072670000000    -0.358781   
O17      O      0.529730000000     0.522550000000     0.542260000000    -0.591843   
O18      O      0.320990000000     0.374320000000     0.238470000000    -0.345882   
O19      O      0.235870000000     0.178120000000     0.220430000000    -0.355076   
O20      O      0.369680000000     0.237930000000     0.215930000000    -0.350575   
O21      O      0.173410000000     0.319930000000     0.242090000000    -0.354225   
O22      O      0.319250000000     0.182670000000     0.216060000000    -0.3642     
O23      O      0.226830000000     0.372490000000     0.242530000000    -0.350317   
O24      O      0.182300000000     0.230390000000     0.223110000000    -0.347542   
O25      O      0.376450000000     0.323490000000     0.234810000000    -0.350915   
O26      O      0.239690000000     0.355980000000     0.330290000000    -0.364658   
O27      O      0.321760000000     0.176650000000     0.311980000000    -0.369959   
O28      O      0.373940000000     0.312770000000     0.317800000000    -0.357617   
O29      O      0.179770000000     0.219660000000     0.307830000000    -0.358742   
O30      O      0.237400000000     0.171190000000     0.308110000000    -0.367804   
O31      O      0.320730000000     0.365580000000     0.319610000000    -0.345988   
O32      O      0.188670000000     0.300780000000     0.329430000000    -0.371417   
O33      O      0.372840000000     0.231590000000     0.315540000000    -0.370325   
O34      O      0.276930000000     0.272980000000     0.252240000000    -0.58994    
O35      O      0.125410000000     0.264570000000     0.153630000000    -0.245138   
O36      O      0.079360000000     0.231820000000     0.203560000000    -0.331441   
O37      O      0.159430000000     0.015240000000     0.391750000000    -0.224394   
O38      O      0.224950000000     0.030560000000     0.426520000000    -0.336953   
O39      O      0.244790000000     0.460060000000     0.202650000000    -0.22997    
O40      O      0.203960000000     0.471030000000     0.265110000000    -0.325575   
O41      O      0.415570000000     0.279190000000     0.131360000000    -0.232387   
O42      O      0.460970000000     0.251280000000     0.184840000000    -0.327318   
O43      O      0.343800000000     0.462450000000     0.308400000000    -0.239446   
O44      O      0.299060000000     0.449260000000     0.367660000000    -0.338342   
O45      O      0.462020000000     0.215230000000     0.491610000000    -0.235002   
O46      O      0.506200000000     0.203180000000     0.431690000000    -0.336191   
O47      O      0.103980000000     0.422770000000     0.363230000000    -0.222368   
O48      O      0.052030000000     0.368330000000     0.363260000000    -0.342155   
O49      O      0.322190000000     0.450020000000     0.097480000000    -0.234469   
O50      O      0.362390000000     0.386640000000     0.101050000000    -0.322204   
O51      O      0.484360000000     0.424100000000     0.985840000000    -0.365056   
O52      O      0.067760000000     0.103350000000     0.964530000000    -0.37311    
O53      O      0.432320000000     0.064880000000     0.978550000000    -0.36608    
O54      O      0.127830000000     0.468140000000     0.992200000000    -0.357656   
O55      O      0.484660000000     0.118510000000     0.979630000000    -0.352755   
O56      O      0.066780000000     0.425310000000     0.981360000000    -0.369382   
O57      O      0.123700000000     0.053960000000     0.972900000000    -0.356442   
O58      O      0.434910000000     0.480190000000     0.978460000000    -0.374505   
O59      O      0.069810000000     0.426150000000     0.575310000000    -0.352851   
O60      O      0.493160000000     0.115110000000     0.570110000000    -0.359252   
O61      O      0.433260000000     0.485560000000     0.573230000000    -0.351416   
O62      O      0.132410000000     0.069590000000     0.557530000000    -0.360936   
O63      O      0.079570000000     0.122920000000     0.552690000000    -0.362831   
O64      O      0.493060000000     0.441770000000     0.586250000000    -0.360198   
O65      O      0.121970000000     0.480260000000     0.577440000000    -0.359135   
O66      O      0.438370000000     0.063700000000     0.572670000000    -0.358791   
O67      O      0.529730000000     0.522550000000     0.042260000000    -0.591666   
O68      O      0.320990000000     0.374320000000     0.738470000000    -0.34588    
O69      O      0.235870000000     0.178120000000     0.720430000000    -0.355084   
O70      O      0.369680000000     0.237930000000     0.715930000000    -0.350562   
O71      O      0.173410000000     0.319930000000     0.742090000000    -0.354225   
O72      O      0.319250000000     0.182670000000     0.716070000000    -0.364205   
O73      O      0.226830000000     0.372490000000     0.742530000000    -0.350316   
O74      O      0.182300000000     0.230390000000     0.723110000000    -0.34755    
O75      O      0.376450000000     0.323490000000     0.734810000000    -0.350914   
O76      O      0.239690000000     0.355980000000     0.830290000000    -0.364661   
O77      O      0.321760000000     0.176650000000     0.811980000000    -0.369986   
O78      O      0.373940000000     0.312770000000     0.817800000000    -0.357574   
O79      O      0.179770000000     0.219660000000     0.807840000000    -0.358743   
O80      O      0.237400000000     0.171190000000     0.808110000000    -0.367816   
O81      O      0.320730000000     0.365580000000     0.819610000000    -0.345949   
O82      O      0.188670000000     0.300780000000     0.829430000000    -0.371406   
O83      O      0.372840000000     0.231590000000     0.815540000000    -0.370351   
O84      O      0.276930000000     0.272980000000     0.752240000000    -0.589936   
O85      O      0.125410000000     0.264570000000     0.653630000000    -0.245103   
O86      O      0.079360000000     0.231820000000     0.703560000000    -0.331441   
O87      O      0.159430000000     0.015240000000     0.891750000000    -0.224373   
O88      O      0.224950000000     0.030560000000     0.926530000000    -0.336859   
O89      O      0.244790000000     0.460060000000     0.702650000000    -0.229963   
O90      O      0.203960000000     0.471030000000     0.765110000000    -0.325579   
O91      O      0.415570000000     0.279190000000     0.631360000000    -0.232328   
O92      O      0.460970000000     0.251280000000     0.684840000000    -0.327317   
O93      O      0.343800000000     0.462450000000     0.808400000000    -0.239448   
O94      O      0.299060000000     0.449260000000     0.867660000000    -0.338331   
O95      O      0.462020000000     0.215230000000     0.991620000000    -0.234715   
O96      O      0.506200000000     0.203180000000     0.931690000000    -0.336144   
O97      O      0.103980000000     0.422770000000     0.863240000000    -0.222406   
O98      O      0.052030000000     0.368330000000     0.863260000000    -0.342165   
O99      O      0.322190000000     0.450020000000     0.597480000000    -0.234379   
O100     O      0.362390000000     0.386640000000     0.601050000000    -0.322171   
O101     O      0.484360000000     0.924100000000     0.485840000000    -0.365339   
O102     O      0.067760000000     0.603350000000     0.464530000000    -0.373395   
O103     O      0.432320000000     0.564880000000     0.478550000000    -0.366386   
O104     O      0.127830000000     0.968140000000     0.492200000000    -0.357892   
O105     O      0.484660000000     0.618510000000     0.479630000000    -0.353065   
O106     O      0.066780000000     0.925310000000     0.481360000000    -0.369648   
O107     O      0.123700000000     0.553960000000     0.472900000000    -0.356657   
O108     O      0.434910000000     0.980190000000     0.478460000000    -0.374709   
O109     O      0.069810000000     0.926150000000     0.075310000000    -0.352882   
O110     O      0.493160000000     0.615110000000     0.070110000000    -0.359265   
O111     O      0.433260000000     0.985560000000     0.073230000000    -0.351345   
O112     O      0.132410000000     0.569600000000     0.057530000000    -0.361021   
O113     O      0.079570000000     0.622920000000     0.052690000000    -0.362899   
O114     O      0.493060000000     0.941770000000     0.086250000000    -0.360158   
O115     O      0.121970000000     0.980260000000     0.077440000000    -0.359074   
O116     O      0.438370000000     0.563700000000     0.072670000000    -0.358695   
O117     O      0.529730000000     0.022550000000     0.542260000000    -0.59188    
O118     O      0.320990000000     0.874320000000     0.238470000000    -0.345879   
O119     O      0.235870000000     0.678120000000     0.220430000000    -0.355072   
O120     O      0.369680000000     0.737930000000     0.215930000000    -0.350575   
O121     O      0.173410000000     0.819930000000     0.242090000000    -0.354225   
O122     O      0.319250000000     0.682670000000     0.216060000000    -0.364196   
O123     O      0.226830000000     0.872490000000     0.242530000000    -0.350317   
O124     O      0.182300000000     0.730390000000     0.223110000000    -0.34754    
O125     O      0.376450000000     0.823490000000     0.234810000000    -0.350916   
O126     O      0.239690000000     0.855980000000     0.330290000000    -0.364658   
O127     O      0.321760000000     0.676650000000     0.311980000000    -0.369955   
O128     O      0.373940000000     0.812770000000     0.317800000000    -0.357617   
O129     O      0.179770000000     0.719660000000     0.307830000000    -0.358742   
O130     O      0.237400000000     0.671190000000     0.308110000000    -0.367801   
O131     O      0.320730000000     0.865580000000     0.319610000000    -0.345988   
O132     O      0.188670000000     0.800780000000     0.329430000000    -0.371417   
O133     O      0.372840000000     0.731590000000     0.315540000000    -0.370325   
O134     O      0.276930000000     0.772980000000     0.252240000000    -0.589941   
O135     O      0.125410000000     0.764570000000     0.153630000000    -0.245025   
O136     O      0.079360000000     0.731820000000     0.203560000000    -0.331261   
O137     O      0.159430000000     0.515240000000     0.391750000000    -0.224314   
O138     O      0.224950000000     0.530560000000     0.426520000000    -0.336817   
O139     O      0.244790000000     0.960060000000     0.202650000000    -0.229952   
O140     O      0.203960000000     0.971030000000     0.265110000000    -0.325558   
O141     O      0.415570000000     0.779190000000     0.131360000000    -0.232389   
O142     O      0.460970000000     0.751280000000     0.184840000000    -0.327317   
O143     O      0.343800000000     0.962450000000     0.308400000000    -0.239424   
O144     O      0.299060000000     0.949260000000     0.367660000000    -0.338336   
O145     O      0.462020000000     0.715230000000     0.491610000000    -0.235036   
O146     O      0.506200000000     0.703180000000     0.431690000000    -0.336201   
O147     O      0.103980000000     0.922770000000     0.363230000000    -0.222342   
O148     O      0.052030000000     0.868330000000     0.363260000000    -0.342154   
O149     O      0.322190000000     0.950020000000     0.097480000000    -0.234444   
O150     O      0.362390000000     0.886640000000     0.101050000000    -0.322202   
O151     O      0.484360000000     0.924100000000     0.985840000000    -0.365055   
O152     O      0.067760000000     0.603350000000     0.964530000000    -0.373129   
O153     O      0.432320000000     0.564880000000     0.978550000000    -0.366071   
O154     O      0.127830000000     0.968140000000     0.992200000000    -0.357587   
O155     O      0.484660000000     0.618510000000     0.979630000000    -0.352749   
O156     O      0.066780000000     0.925310000000     0.981360000000    -0.36938    
O157     O      0.123700000000     0.553960000000     0.972900000000    -0.35637    
O158     O      0.434910000000     0.980190000000     0.978460000000    -0.37443    
O159     O      0.069810000000     0.926150000000     0.575310000000    -0.352852   
O160     O      0.493160000000     0.615110000000     0.570110000000    -0.359268   
O161     O      0.433260000000     0.985560000000     0.573230000000    -0.35134    
O162     O      0.132410000000     0.569600000000     0.557530000000    -0.361      
O163     O      0.079570000000     0.622920000000     0.552690000000    -0.362872   
O164     O      0.493060000000     0.941770000000     0.586250000000    -0.360191   
O165     O      0.121970000000     0.980260000000     0.577440000000    -0.359061   
O166     O      0.438370000000     0.563700000000     0.572670000000    -0.358705   
O167     O      0.529730000000     0.022550000000     0.042260000000    -0.591703   
O168     O      0.320990000000     0.874320000000     0.738470000000    -0.345877   
O169     O      0.235870000000     0.678120000000     0.720430000000    -0.355079   
O170     O      0.369680000000     0.737930000000     0.715930000000    -0.350562   
O171     O      0.173410000000     0.819930000000     0.742090000000    -0.354224   
O172     O      0.319250000000     0.682670000000     0.716070000000    -0.364201   
O173     O      0.226830000000     0.872490000000     0.742530000000    -0.350316   
O174     O      0.182300000000     0.730390000000     0.723110000000    -0.347548   
O175     O      0.376450000000     0.823490000000     0.734810000000    -0.350914   
O176     O      0.239690000000     0.855980000000     0.830290000000    -0.36466    
O177     O      0.321760000000     0.676650000000     0.811980000000    -0.369982   
O178     O      0.373940000000     0.812770000000     0.817800000000    -0.357575   
O179     O      0.179770000000     0.719660000000     0.807840000000    -0.358742   
O180     O      0.237400000000     0.671190000000     0.808110000000    -0.367813   
O181     O      0.320730000000     0.865580000000     0.819610000000    -0.34595    
O182     O      0.188670000000     0.800780000000     0.829430000000    -0.371406   
O183     O      0.372840000000     0.731590000000     0.815540000000    -0.370351   
O184     O      0.276930000000     0.772980000000     0.752240000000    -0.589937   
O185     O      0.125410000000     0.764570000000     0.653630000000    -0.244991   
O186     O      0.079360000000     0.731820000000     0.703560000000    -0.331261   
O187     O      0.159430000000     0.515240000000     0.891750000000    -0.224294   
O188     O      0.224950000000     0.530560000000     0.926530000000    -0.336723   
O189     O      0.244790000000     0.960060000000     0.702650000000    -0.229945   
O190     O      0.203960000000     0.971030000000     0.765110000000    -0.325562   
O191     O      0.415570000000     0.779190000000     0.631360000000    -0.23233    
O192     O      0.460970000000     0.751280000000     0.684840000000    -0.327316   
O193     O      0.343800000000     0.962450000000     0.808400000000    -0.239426   
O194     O      0.299060000000     0.949260000000     0.867660000000    -0.338325   
O195     O      0.462020000000     0.715230000000     0.991620000000    -0.234749   
O196     O      0.506200000000     0.703180000000     0.931690000000    -0.336153   
O197     O      0.103980000000     0.922770000000     0.863240000000    -0.22238    
O198     O      0.052030000000     0.868330000000     0.863260000000    -0.342163   
O199     O      0.322190000000     0.950020000000     0.597480000000    -0.234355   
O200     O      0.362390000000     0.886640000000     0.601050000000    -0.322169   
O201     O      0.984360000000     0.424100000000     0.485840000000    -0.36525    
O202     O      0.567760000000     0.103350000000     0.464530000000    -0.373369   
O203     O      0.932310000000     0.064880000000     0.478550000000    -0.366306   
O204     O      0.627830000000     0.468140000000     0.492200000000    -0.357951   
O205     O      0.984660000000     0.118510000000     0.479630000000    -0.352967   
O206     O      0.566780000000     0.425310000000     0.481360000000    -0.369639   
O207     O      0.623700000000     0.053960000000     0.472900000000    -0.35672    
O208     O      0.934910000000     0.480190000000     0.478460000000    -0.374765   
O209     O      0.569810000000     0.426150000000     0.075310000000    -0.352867   
O210     O      0.993160000000     0.115110000000     0.070110000000    -0.359165   
O211     O      0.933260000000     0.485560000000     0.073230000000    -0.351405   
O212     O      0.632410000000     0.069590000000     0.057530000000    -0.360948   
O213     O      0.579570000000     0.122920000000     0.052690000000    -0.362852   
O214     O      0.993060000000     0.441770000000     0.086250000000    -0.360073   
O215     O      0.621970000000     0.480260000000     0.077440000000    -0.359139   
O216     O      0.938370000000     0.063700000000     0.072670000000    -0.358767   
O217     O      0.029740000000     0.522550000000     0.542260000000    -0.591878   
O218     O      0.820990000000     0.374320000000     0.238470000000    -0.345964   
O219     O      0.735870000000     0.178120000000     0.220430000000    -0.355061   
O220     O      0.869680000000     0.237930000000     0.215930000000    -0.350581   
O221     O      0.673410000000     0.319930000000     0.242090000000    -0.354228   
O222     O      0.819250000000     0.182670000000     0.216060000000    -0.364201   
O223     O      0.726830000000     0.372490000000     0.242530000000    -0.350319   
O224     O      0.682290000000     0.230390000000     0.223110000000    -0.347471   
O225     O      0.876450000000     0.323490000000     0.234810000000    -0.3509     
O226     O      0.739690000000     0.355980000000     0.330290000000    -0.364659   
O227     O      0.821760000000     0.176650000000     0.311980000000    -0.370028   
O228     O      0.873930000000     0.312770000000     0.317800000000    -0.357687   
O229     O      0.679780000000     0.219660000000     0.307830000000    -0.358819   
O230     O      0.737400000000     0.171190000000     0.308110000000    -0.367819   
O231     O      0.820730000000     0.365580000000     0.319610000000    -0.346002   
O232     O      0.688670000000     0.300780000000     0.329430000000    -0.37141    
O233     O      0.872840000000     0.231590000000     0.315540000000    -0.370303   
O234     O      0.776930000000     0.272980000000     0.252240000000    -0.589952   
O235     O      0.625400000000     0.264570000000     0.153630000000    -0.245172   
O236     O      0.579360000000     0.231820000000     0.203560000000    -0.331432   
O237     O      0.659430000000     0.015240000000     0.391750000000    -0.224385   
O238     O      0.724950000000     0.030560000000     0.426520000000    -0.336951   
O239     O      0.744790000000     0.460060000000     0.202650000000    -0.229969   
O240     O      0.703960000000     0.471030000000     0.265110000000    -0.325568   
O241     O      0.915580000000     0.279190000000     0.131360000000    -0.232423   
O242     O      0.960970000000     0.251280000000     0.184840000000    -0.327315   
O243     O      0.843800000000     0.462450000000     0.308400000000    -0.239438   
O244     O      0.799060000000     0.449260000000     0.367660000000    -0.338338   
O245     O      0.962020000000     0.215230000000     0.491610000000    -0.234981   
O246     O      0.006210000000     0.203180000000     0.431690000000    -0.336361   
O247     O      0.603980000000     0.422770000000     0.363230000000    -0.222347   
O248     O      0.552030000000     0.368330000000     0.363260000000    -0.342191   
O249     O      0.822190000000     0.450020000000     0.097480000000    -0.23447    
O250     O      0.862390000000     0.386640000000     0.101050000000    -0.322202   
O251     O      0.984360000000     0.424100000000     0.985840000000    -0.364966   
O252     O      0.567760000000     0.103350000000     0.964530000000    -0.373103   
O253     O      0.932310000000     0.064880000000     0.978550000000    -0.365991   
O254     O      0.627830000000     0.468140000000     0.992200000000    -0.357646   
O255     O      0.984660000000     0.118510000000     0.979630000000    -0.352652   
O256     O      0.566780000000     0.425310000000     0.981360000000    -0.369371   
O257     O      0.623700000000     0.053960000000     0.972900000000    -0.356433   
O258     O      0.934910000000     0.480190000000     0.978460000000    -0.374486   
O259     O      0.569810000000     0.426150000000     0.575310000000    -0.352837   
O260     O      0.993160000000     0.115110000000     0.570110000000    -0.359168   
O261     O      0.933260000000     0.485560000000     0.573230000000    -0.3514     
O262     O      0.632410000000     0.069590000000     0.557530000000    -0.360926   
O263     O      0.579570000000     0.122920000000     0.552690000000    -0.362825   
O264     O      0.993060000000     0.441770000000     0.586250000000    -0.360105   
O265     O      0.621970000000     0.480260000000     0.577440000000    -0.359126   
O266     O      0.938370000000     0.063700000000     0.572670000000    -0.358777   
O267     O      0.029740000000     0.522550000000     0.042260000000    -0.591701   
O268     O      0.820990000000     0.374320000000     0.738470000000    -0.345961   
O269     O      0.735870000000     0.178120000000     0.720430000000    -0.355069   
O270     O      0.869680000000     0.237930000000     0.715930000000    -0.350568   
O271     O      0.673410000000     0.319930000000     0.742090000000    -0.354228   
O272     O      0.819250000000     0.182670000000     0.716070000000    -0.364206   
O273     O      0.726830000000     0.372490000000     0.742530000000    -0.350319   
O274     O      0.682290000000     0.230390000000     0.723110000000    -0.347479   
O275     O      0.876450000000     0.323490000000     0.734810000000    -0.350899   
O276     O      0.739690000000     0.355980000000     0.830290000000    -0.364661   
O277     O      0.821760000000     0.176650000000     0.811980000000    -0.370056   
O278     O      0.873930000000     0.312770000000     0.817800000000    -0.357644   
O279     O      0.679780000000     0.219660000000     0.807840000000    -0.35882    
O280     O      0.737400000000     0.171190000000     0.808110000000    -0.367831   
O281     O      0.820730000000     0.365580000000     0.819610000000    -0.345964   
O282     O      0.688670000000     0.300780000000     0.829430000000    -0.371399   
O283     O      0.872840000000     0.231590000000     0.815540000000    -0.37033    
O284     O      0.776930000000     0.272980000000     0.752240000000    -0.589948   
O285     O      0.625400000000     0.264570000000     0.653630000000    -0.245138   
O286     O      0.579360000000     0.231820000000     0.703560000000    -0.331433   
O287     O      0.659430000000     0.015240000000     0.891750000000    -0.224365   
O288     O      0.724950000000     0.030560000000     0.926530000000    -0.336857   
O289     O      0.744790000000     0.460060000000     0.702650000000    -0.229962   
O290     O      0.703960000000     0.471030000000     0.765110000000    -0.325573   
O291     O      0.915580000000     0.279190000000     0.631360000000    -0.232364   
O292     O      0.960970000000     0.251280000000     0.684840000000    -0.327313   
O293     O      0.843800000000     0.462450000000     0.808400000000    -0.23944    
O294     O      0.799060000000     0.449260000000     0.867660000000    -0.338326   
O295     O      0.962020000000     0.215230000000     0.991620000000    -0.234695   
O296     O      0.006210000000     0.203180000000     0.931690000000    -0.336314   
O297     O      0.603980000000     0.422770000000     0.863240000000    -0.222385   
O298     O      0.552030000000     0.368330000000     0.863260000000    -0.3422     
O299     O      0.822190000000     0.450020000000     0.597480000000    -0.234381   
O300     O      0.862390000000     0.386640000000     0.601050000000    -0.322169   
O301     O      0.984360000000     0.924100000000     0.485840000000    -0.365249   
O302     O      0.567760000000     0.603350000000     0.464530000000    -0.373388   
O303     O      0.932310000000     0.564880000000     0.478550000000    -0.366297   
O304     O      0.627830000000     0.968140000000     0.492200000000    -0.357882   
O305     O      0.984660000000     0.618510000000     0.479630000000    -0.352961   
O306     O      0.566780000000     0.925310000000     0.481360000000    -0.369636   
O307     O      0.623700000000     0.553960000000     0.472900000000    -0.356648   
O308     O      0.934910000000     0.980190000000     0.478460000000    -0.37469    
O309     O      0.569810000000     0.926150000000     0.075310000000    -0.352868   
O310     O      0.993160000000     0.615110000000     0.070110000000    -0.359181   
O311     O      0.933260000000     0.985560000000     0.073230000000    -0.351329   
O312     O      0.632410000000     0.569600000000     0.057530000000    -0.361011   
O313     O      0.579570000000     0.622920000000     0.052690000000    -0.362893   
O314     O      0.993060000000     0.941770000000     0.086250000000    -0.360065   
O315     O      0.621970000000     0.980260000000     0.077440000000    -0.359065   
O316     O      0.938370000000     0.563700000000     0.072670000000    -0.358681   
O317     O      0.029740000000     0.022550000000     0.542260000000    -0.591915   
O318     O      0.820990000000     0.874320000000     0.238470000000    -0.345961   
O319     O      0.735870000000     0.678120000000     0.220430000000    -0.355057   
O320     O      0.869680000000     0.737930000000     0.215930000000    -0.350581   
O321     O      0.673410000000     0.819930000000     0.242090000000    -0.354227   
O322     O      0.819250000000     0.682670000000     0.216060000000    -0.364198   
O323     O      0.726830000000     0.872490000000     0.242530000000    -0.350319   
O324     O      0.682290000000     0.730390000000     0.223110000000    -0.347469   
O325     O      0.876450000000     0.823490000000     0.234810000000    -0.350901   
O326     O      0.739690000000     0.855980000000     0.330290000000    -0.364658   
O327     O      0.821760000000     0.676650000000     0.311980000000    -0.370025   
O328     O      0.873930000000     0.812770000000     0.317800000000    -0.357687   
O329     O      0.679780000000     0.719660000000     0.307830000000    -0.358819   
O330     O      0.737400000000     0.671190000000     0.308110000000    -0.367816   
O331     O      0.820730000000     0.865580000000     0.319610000000    -0.346003   
O332     O      0.688670000000     0.800780000000     0.329430000000    -0.371411   
O333     O      0.872840000000     0.731590000000     0.315540000000    -0.370303   
O334     O      0.776930000000     0.772980000000     0.252240000000    -0.589953   
O335     O      0.625400000000     0.764570000000     0.153630000000    -0.245059   
O336     O      0.579360000000     0.731820000000     0.203560000000    -0.331253   
O337     O      0.659430000000     0.515240000000     0.391750000000    -0.224306   
O338     O      0.724950000000     0.530560000000     0.426520000000    -0.336816   
O339     O      0.744790000000     0.960060000000     0.202650000000    -0.229951   
O340     O      0.703960000000     0.971030000000     0.265110000000    -0.325552   
O341     O      0.915580000000     0.779190000000     0.131360000000    -0.232424   
O342     O      0.960970000000     0.751280000000     0.184840000000    -0.327313   
O343     O      0.843800000000     0.962450000000     0.308400000000    -0.239416   
O344     O      0.799060000000     0.949260000000     0.367660000000    -0.338332   
O345     O      0.962020000000     0.715230000000     0.491610000000    -0.235015   
O346     O      0.006210000000     0.703180000000     0.431690000000    -0.336371   
O347     O      0.603980000000     0.922770000000     0.363230000000    -0.222322   
O348     O      0.552030000000     0.868330000000     0.363260000000    -0.342189   
O349     O      0.822190000000     0.950020000000     0.097480000000    -0.234446   
O350     O      0.862390000000     0.886640000000     0.101050000000    -0.3222     
O351     O      0.984360000000     0.924100000000     0.985840000000    -0.364965   
O352     O      0.567760000000     0.603350000000     0.964530000000    -0.373122   
O353     O      0.932310000000     0.564880000000     0.978550000000    -0.365981   
O354     O      0.627830000000     0.968140000000     0.992200000000    -0.357577   
O355     O      0.984660000000     0.618510000000     0.979630000000    -0.352646   
O356     O      0.566780000000     0.925310000000     0.981360000000    -0.369368   
O357     O      0.623700000000     0.553960000000     0.972900000000    -0.356361   
O358     O      0.934910000000     0.980190000000     0.978460000000    -0.374411   
O359     O      0.569810000000     0.926150000000     0.575310000000    -0.352837   
O360     O      0.993160000000     0.615110000000     0.570110000000    -0.359184   
O361     O      0.933260000000     0.985560000000     0.573230000000    -0.351324   
O362     O      0.632410000000     0.569600000000     0.557530000000    -0.36099    
O363     O      0.579570000000     0.622920000000     0.552690000000    -0.362866   
O364     O      0.993060000000     0.941770000000     0.586250000000    -0.360098   
O365     O      0.621970000000     0.980260000000     0.577440000000    -0.359052   
O366     O      0.938370000000     0.563700000000     0.572670000000    -0.358691   
O367     O      0.029740000000     0.022550000000     0.042260000000    -0.591738   
O368     O      0.820990000000     0.874320000000     0.738470000000    -0.345959   
O369     O      0.735870000000     0.678120000000     0.720430000000    -0.355065   
O370     O      0.869680000000     0.737930000000     0.715930000000    -0.350568   
O371     O      0.673410000000     0.819930000000     0.742090000000    -0.354227   
O372     O      0.819250000000     0.682670000000     0.716070000000    -0.364203   
O373     O      0.726830000000     0.872490000000     0.742530000000    -0.350319   
O374     O      0.682290000000     0.730390000000     0.723110000000    -0.347477   
O375     O      0.876450000000     0.823490000000     0.734810000000    -0.350899   
O376     O      0.739690000000     0.855980000000     0.830290000000    -0.364661   
O377     O      0.821760000000     0.676650000000     0.811980000000    -0.370052   
O378     O      0.873930000000     0.812770000000     0.817800000000    -0.357645   
O379     O      0.679780000000     0.719660000000     0.807840000000    -0.35882    
O380     O      0.737400000000     0.671190000000     0.808110000000    -0.367828   
O381     O      0.820730000000     0.865580000000     0.819610000000    -0.345964   
O382     O      0.688670000000     0.800780000000     0.829430000000    -0.371399   
O383     O      0.872840000000     0.731590000000     0.815540000000    -0.370329   
O384     O      0.776930000000     0.772980000000     0.752240000000    -0.589949   
O385     O      0.625400000000     0.764570000000     0.653630000000    -0.245025   
O386     O      0.579360000000     0.731820000000     0.703560000000    -0.331253   
O387     O      0.659430000000     0.515240000000     0.891750000000    -0.224286   
O388     O      0.724950000000     0.530560000000     0.926530000000    -0.336722   
O389     O      0.744790000000     0.960060000000     0.702650000000    -0.229944   
O390     O      0.703960000000     0.971030000000     0.765110000000    -0.325556   
O391     O      0.915580000000     0.779190000000     0.631360000000    -0.232365   
O392     O      0.960970000000     0.751280000000     0.684840000000    -0.327312   
O393     O      0.843800000000     0.962450000000     0.808400000000    -0.239418   
O394     O      0.799060000000     0.949260000000     0.867660000000    -0.33832    
O395     O      0.962020000000     0.715230000000     0.991620000000    -0.234729   
O396     O      0.006210000000     0.703180000000     0.931690000000    -0.336324   
O397     O      0.603980000000     0.922770000000     0.863240000000    -0.22236    
O398     O      0.552030000000     0.868330000000     0.863260000000    -0.342198   
O399     O      0.822190000000     0.950020000000     0.597480000000    -0.234356   
O400     O      0.862390000000     0.886640000000     0.601050000000    -0.322167   


