data_structure

_audit_creation_method RASPA-1.0
_audit_creation_date 2023-6-4
_audit_author_name 'Poobodin Mano'

_cell_length_a    22.947
_cell_length_b    23.0365
_cell_length_c    23.3074
_cell_angle_alpha 87.129
_cell_angle_beta  93.8243
_cell_angle_gamma 120.434
_cell_volume      10597.5

_symmetry_cell_setting          triclinic
_symmetry_space_group_name_Hall 'P 1'
_symmetry_space_group_name_H-M  'P 1'
_symmetry_Int_Tables_number     1

_symmetry_equiv_pos_as_xyz 'x,y,z'

loop_
_atom_site_label
_atom_site_type_symbol
_atom_site_fract_x
_atom_site_fract_y
_atom_site_fract_z
_atom_site_charge
C1       C      0.108650000000     0.224520000000     0.994130000000     0.386076   
C2       C      0.978280000000     0.928820000000     0.100270000000     0.508541   
C3       C      0.060050000000     0.052470000000     0.929540000000     0.467011   
C4       C      0.962510000000     0.089750000000     0.131560000000     0.460313   
C5       C      0.132140000000     0.164880000000     0.206970000000     0.45235    
C6       C      0.236330000000     0.113570000000     0.965090000000     0.413453   
C7       C      0.239270000000     0.226640000000     0.085150000000     0.441675   
C8       C      0.140840000000     0.984460000000     0.132810000000     0.480658   
C9       C      0.094810000000     0.103460000000     0.423730000000     0.485578   
C10      C      0.070260000000     0.186650000000     0.638140000000     0.441913   
C11      C      0.927310000000     0.058400000000     0.564630000000     0.488509   
C12      C      0.233210000000     0.173810000000     0.512440000000     0.4284     
C13      C      0.197860000000     0.043840000000     0.617960000000     0.457204   
C14      C      0.943290000000     0.909420000000     0.588490000000     0.475126   
C15      C      0.086190000000     0.945110000000     0.469840000000     0.367333   
C16      C      0.116580000000     0.078960000000     0.716090000000     0.447178   
C17      C      0.963540000000     0.424860000000     0.012640000000     0.473803   
C18      C      0.136320000000     0.744120000000     0.109600000000     0.403118   
C19      C      0.978630000000     0.581480000000     0.093480000000     0.456416   
C20      C      0.098740000000     0.595120000000     0.938560000000     0.493779   
C21      C      0.253820000000     0.598290000000     0.016420000000     0.552458   
C22      C      0.062980000000     0.537810000000     0.217750000000     0.454075   
C23      C      0.084710000000     0.403040000000     0.097950000000     0.475591   
C24      C      0.248580000000     0.689720000000     0.153250000000     0.45225    
C25      C      0.926240000000     0.400680000000     0.528360000000     0.461924   
C26      C      0.093660000000     0.734940000000     0.550510000000     0.393137   
C27      C      0.928960000000     0.572290000000     0.574930000000     0.488797   
C28      C      0.054100000000     0.528340000000     0.445440000000     0.454705   
C29      C      0.201310000000     0.557330000000     0.544060000000     0.44168    
C30      C      0.022230000000     0.568860000000     0.712260000000     0.463805   
C31      C      0.031460000000     0.402010000000     0.652000000000     0.444392   
C32      C      0.206280000000     0.686980000000     0.624230000000     0.469138   
C33      C      0.451490000000     0.095650000000     0.001370000000     0.447067   
C34      C      0.582590000000     0.930430000000     0.060880000000     0.447901   
C35      C      0.566890000000     0.103340000000     0.937130000000     0.457684   
C36      C      0.455200000000     0.918850000000     0.134680000000     0.456227   
C37      C      0.535680000000     0.068930000000     0.217450000000     0.455651   
C38      C      0.717760000000     0.196520000000     0.023690000000     0.450224   
C39      C      0.535170000000     0.185590000000     0.133540000000     0.434199   
C40      C      0.725510000000     0.082700000000     0.106630000000     0.454708   
C41      C      0.413250000000     0.078030000000     0.538830000000     0.424774   
C42      C      0.545850000000     0.915180000000     0.544280000000     0.456387   
C43      C      0.515100000000     0.094920000000     0.435300000000     0.458738   
C44      C      0.443060000000     0.905870000000     0.637170000000     0.445816   
C45      C      0.541080000000     0.062910000000     0.714720000000     0.457735   
C46      C      0.682560000000     0.185200000000     0.505810000000     0.45383    
C47      C      0.529640000000     0.171880000000     0.649860000000     0.443319   
C48      C      0.696870000000     0.066850000000     0.568440000000     0.469487   
C49      C      0.454020000000     0.432680000000     0.005610000000     0.459774   
C50      C      0.595880000000     0.706250000000     0.996140000000     0.465703   
C51      C      0.435240000000     0.550840000000     0.116010000000     0.431163   
C52      C      0.588680000000     0.531290000000     0.913300000000     0.468332   
C53      C      0.734930000000     0.559160000000     0.018400000000     0.48384    
C54      C      0.592120000000     0.579470000000     0.192780000000     0.490701   
C55      C      0.539320000000     0.410860000000     0.130820000000     0.434912   
C56      C      0.738120000000     0.721690000000     0.067540000000     0.505007   
C57      C      0.451860000000     0.386530000000     0.481090000000     0.451578   
C58      C      0.545770000000     0.677030000000     0.538760000000     0.456391   
C59      C      0.431320000000     0.553560000000     0.587360000000     0.454117   
C60      C      0.572100000000     0.519330000000     0.418300000000     0.458244   
C61      C      0.706380000000     0.570320000000     0.517200000000     0.454086   
C62      C      0.507140000000     0.482110000000     0.694020000000     0.446393   
C63      C      0.526390000000     0.384570000000     0.624740000000     0.449914   
C64      C      0.697740000000     0.681790000000     0.589760000000     0.461683   
C65      C      0.553250000000     0.561840000000     0.820180000000    -0.0101519  
C66      C      0.560860000000     0.455860000000     0.830790000000    -0.00960441 
C67      C      0.489960000000     0.524680000000     0.781050000000    -0.00603984 
C68      C      0.500870000000     0.422290000000     0.786420000000    -0.0100427  
C69      C      0.632260000000     0.613010000000     0.350010000000     0.00470788 
C70      C      0.611630000000     0.499230000000     0.330330000000    -0.00459133 
C71      C      0.611360000000     0.622550000000     0.288500000000    -0.0146213  
C72      C      0.583550000000     0.501530000000     0.269930000000    -0.0102145  
C73      C      0.501530000000     0.811110000000     0.485820000000    -0.0116287  
C74      C      0.555650000000     0.822110000000     0.587020000000    -0.00894224 
C75      C      0.520320000000     0.755300000000     0.478790000000    -0.0119321  
C76      C      0.512030000000     0.746750000000     0.586670000000    -0.00721475 
C77      C      0.589140000000     0.348230000000     0.693760000000    -0.0145962  
C78      C      0.462500000000     0.276650000000     0.679250000000    -0.0116761  
C79      C      0.599030000000     0.289870000000     0.679040000000    -0.00644448 
C80      C      0.477000000000     0.221960000000     0.706030000000    -0.0114305  
C81      C      0.605440000000     0.155610000000     0.784200000000    -0.00856133 
C82      C      0.482900000000     0.074200000000     0.794450000000    -0.00513857 
C83      C      0.620530000000     0.141910000000     0.846690000000    -0.0108295  
C84      C      0.496390000000     0.050500000000     0.852750000000    -0.0101668  
C85      C      0.443580000000     0.045660000000     0.347230000000    -0.0089934  
C86      C      0.545380000000     0.160280000000     0.344650000000    -0.0102352  
C87      C      0.473950000000     0.020690000000     0.305210000000    -0.00959155 
C88      C      0.579890000000     0.136560000000     0.305160000000    -0.00935365 
C89      C      0.592390000000     0.866360000000     0.983170000000    -0.00877868 
C90      C      0.602390000000     0.837290000000     0.088380000000    -0.0155585  
C91      C      0.628180000000     0.825570000000     0.975010000000    -0.00962101 
C92      C      0.570650000000     0.765690000000     0.066420000000     0.0095785  
C93      C      0.598420000000     0.305330000000     0.155270000000    -0.00974348 
C94      C      0.468230000000     0.239520000000     0.151260000000    -0.0132621  
C95      C      0.595280000000     0.358600000000     0.189140000000    -0.0116532  
C96      C      0.472200000000     0.299350000000     0.182990000000    -0.0130891  
C97      C      0.815880000000     0.361680000000     0.476310000000    -0.0101043  
C98      C      0.870450000000     0.293430000000     0.472110000000    -0.00915502 
C99      C      0.756090000000     0.306060000000     0.506940000000    -0.00537176 
C100     C      0.802030000000     0.228920000000     0.486980000000    -0.0141552  
C101     C      0.326670000000     0.733360000000     0.644410000000    -0.0126897  
C102     C      0.268460000000     0.802360000000     0.651040000000    -0.0175146  
C103     C      0.389220000000     0.789260000000     0.676860000000    -0.00681109 
C104     C      0.332830000000     0.855990000000     0.682200000000     0.00407065 
C105     C      0.756000000000     0.498210000000     0.517990000000     0.00528579 
C106     C      0.817840000000     0.613380000000     0.475900000000    -0.00827552 
C107     C      0.805890000000     0.516130000000     0.568940000000    -0.0112148  
C108     C      0.877350000000     0.631430000000     0.520420000000    -0.0115167  
C109     C      0.357980000000     0.589700000000     0.624100000000    -0.00903285 
C110     C      0.374360000000     0.596190000000     0.518220000000    -0.00844269 
C111     C      0.281860000000     0.547230000000     0.611900000000    -0.0105959  
C112     C      0.298200000000     0.557850000000     0.504780000000    -0.011496   
C113     C      0.019700000000     0.521690000000     0.808360000000    -0.00862181 
C114     C      0.079300000000     0.649170000000     0.791770000000    -0.0136143  
C115     C      0.005130000000     0.532390000000     0.867790000000    -0.00757323 
C116     C      0.074530000000     0.656400000000     0.857030000000    -0.00652529 
C117     C      0.022060000000     0.452670000000     0.361920000000    -0.00928246 
C118     C      0.005520000000     0.551140000000     0.355480000000    -0.0100574  
C119     C      0.066090000000     0.479190000000     0.309050000000    -0.0121911  
C120     C      0.055290000000     0.583830000000     0.307970000000    -0.00831646 
C121     C      0.891840000000     0.306720000000     0.982650000000    -0.00929284 
C122     C      0.844820000000     0.370320000000     0.032290000000    -0.00927504 
C123     C      0.818420000000     0.254610000000     0.963640000000    -0.00843472 
C124     C      0.775070000000     0.319120000000     0.008910000000    -0.00531428 
C125     C      0.334710000000     0.849540000000     0.151900000000    -0.0027756  
C126     C      0.412640000000     0.800130000000     0.162530000000    -0.0101231  
C127     C      0.291850000000     0.797980000000     0.197850000000    -0.0105376  
C128     C      0.361620000000     0.745750000000     0.203610000000    -0.0114105  
C129     C      0.918230000000     0.610740000000     0.015790000000    -0.0148733  
C130     C      0.858960000000     0.540640000000     0.103610000000    -0.0076684  
C131     C      0.860200000000     0.627240000000     0.005090000000    -0.00687719 
C132     C      0.814840000000     0.572030000000     0.099110000000    -0.0083992  
C133     C      0.315650000000     0.511660000000     0.088780000000    -0.01324    
C134     C      0.392850000000     0.632170000000     0.107120000000    -0.00684313 
C135     C      0.307640000000     0.529050000000     0.025340000000     0.000435556
C136     C      0.377100000000     0.650640000000     0.045110000000    -0.01123    
C137     C      0.785580000000     0.787690000000     0.549440000000    -0.00656242 
C138     C      0.802240000000     0.755370000000     0.651840000000    -0.0127578  
C139     C      0.857060000000     0.807710000000     0.539350000000    -0.00638056 
C140     C      0.880730000000     0.799270000000     0.644060000000    -0.0103768  
C141     C      0.340710000000     0.333130000000     0.429010000000    -0.0116247  
C142     C      0.402120000000     0.272110000000     0.441200000000    -0.0071801  
C143     C      0.289200000000     0.288720000000     0.473160000000    -0.00789598 
C144     C      0.350640000000     0.220990000000     0.483000000000    -0.015982   
C145     C      0.863210000000     0.092440000000     0.622050000000    -0.00552952 
C146     C      0.858540000000     0.101580000000     0.514820000000    -0.00738382 
C147     C      0.786750000000     0.058720000000     0.623130000000    -0.0100829  
C148     C      0.781830000000     0.062820000000     0.514310000000    -0.00854684 
C149     C      0.315830000000     0.084450000000     0.648880000000    -0.00190434 
C150     C      0.249780000000     0.975020000000     0.602990000000    -0.000471529
C151     C      0.352100000000     0.118050000000     0.593690000000    -0.0173392  
C152     C      0.290000000000     0.003170000000     0.547830000000    -0.0256257  
C153     C      0.011190000000     0.825650000000     0.489400000000    -0.0160856  
C154     C      0.113160000000     0.861500000000     0.435100000000    -0.00910858 
C155     C      0.041410000000     0.805930000000     0.542200000000    -0.0106572  
C156     C      0.140840000000     0.831380000000     0.482450000000    -0.0112664  
C157     C      0.010750000000     0.231940000000     0.692150000000    -0.0124487  
C158     C      0.123660000000     0.308340000000     0.654820000000    -0.00759306 
C159     C      0.984460000000     0.278650000000     0.666790000000    -0.00850119 
C160     C      0.100210000000     0.354570000000     0.627440000000    -0.0102571  
C161     C      0.078470000000     0.005280000000     0.803610000000    -0.0166432  
C162     C      0.113530000000     0.128580000000     0.806970000000    -0.01291    
C163     C      0.017630000000     0.987590000000     0.840180000000    -0.0102787  
C164     C      0.049530000000     0.107220000000     0.839560000000    -0.00464834 
C165     C      0.201690000000     0.182710000000     0.296880000000    -0.00761633 
C166     C      0.112340000000     0.212500000000     0.291580000000    -0.0108482  
C167     C      0.165170000000     0.127370000000     0.341810000000    -0.0106379  
C168     C      0.072580000000     0.158630000000     0.337920000000    -0.0106236  
C169     C      0.913630000000     0.813030000000     0.065630000000    -0.00685629 
C170     C      0.874860000000     0.846380000000     0.149110000000    -0.00604855 
C171     C      0.850150000000     0.800110000000     0.031080000000    -0.00392651 
C172     C      0.808590000000     0.830010000000     0.116270000000    -0.00684844 
C173     C      0.331270000000     0.381000000000     0.014890000000    -0.00535114 
C174     C      0.378340000000     0.309670000000     0.996590000000    -0.00835611 
C175     C      0.313130000000     0.350080000000     0.076200000000    -0.0128119  
C176     C      0.358160000000     0.276080000000     0.056570000000    -0.00943248 
C177     C      0.831390000000     0.102810000000     0.067540000000    -0.00522481 
C178     C      0.826480000000     0.110860000000     0.173820000000    -0.0115256  
C179     C      0.853900000000     0.051570000000     0.078370000000    -0.00879758 
C180     C      0.861480000000     0.067830000000     0.184520000000    -0.011585   
C181     C      0.357360000000     0.167740000000     0.944110000000    -0.0143148  
C182     C      0.285330000000     0.041050000000     0.967400000000    -0.00921391 
C183     C      0.413590000000     0.154590000000     0.927850000000    -0.00843655 
C184     C      0.342160000000     0.033560000000     0.945000000000    -0.0125426  
C185     C      0.131610000000     0.823380000000     0.173150000000    -0.0131182  
C186     C      0.173100000000     0.858250000000     0.072960000000    -0.0133605  
C187     C      0.100860000000     0.868730000000     0.168570000000    -0.00515846 
C188     C      0.143220000000     0.904100000000     0.069140000000    -0.0079319  
C189     C      0.155560000000     0.342650000000     0.024350000000    -0.00873928 
C190     C      0.031360000000     0.266150000000     0.017160000000    -0.0289006  
C191     C      0.150950000000     0.349010000000     0.089050000000    -0.00998856 
C192     C      0.026650000000     0.280250000000     0.080920000000    -0.00531143 
Co1      Co     0.085240000000     0.171280000000     0.087540000000     1.06188    
Co2      Co     0.103740000000     0.013570000000     0.031170000000     1.00965    
Co3      Co     0.164830000000     0.139220000000     0.010530000000     1.02953    
Co4      Co     0.059370000000     0.044440000000     0.159290000000     1.08507    
Co5      Co     0.127210000000     0.037010000000     0.522260000000     1.10356    
Co6      Co     0.015740000000     0.033020000000     0.641220000000     1.07421    
Co7      Co     0.001470000000     0.020520000000     0.501100000000     1.01095    
Co8      Co     0.160360000000     0.152160000000     0.607940000000     1.07357    
Co9      Co     0.112150000000     0.496660000000     0.017830000000     1.24976    
Co10     Co     0.116470000000     0.632070000000     0.121020000000     1.03238    
Co11     Co     0.015540000000     0.481740000000     0.113810000000     1.03207    
Co12     Co     0.185200000000     0.670970000000     0.039500000000     0.89228    
Co13     Co     0.075310000000     0.476550000000     0.561660000000     1.08985    
Co14     Co     0.067610000000     0.635080000000     0.599210000000     1.0939     
Co15     Co     0.962390000000     0.477220000000     0.623940000000     1.10177    
Co16     Co     0.132890000000     0.626310000000     0.519620000000     0.925338   
Co17     Co     0.469700000000     0.040790000000     0.102710000000     1.06856    
Co18     Co     0.619140000000     0.050880000000     0.014160000000     1.08002    
Co19     Co     0.594410000000     0.169000000000     0.046220000000     1.05247    
Co20     Co     0.599850000000     0.026700000000     0.150150000000     1.04366    
Co21     Co     0.456220000000     0.025990000000     0.614160000000     1.05449    
Co22     Co     0.578540000000     0.038720000000     0.495660000000     1.06495    
Co23     Co     0.563450000000     0.156570000000     0.548090000000     1.09048    
Co24     Co     0.587780000000     0.015210000000     0.634260000000     1.0782     
Co25     Co     0.598320000000     0.476860000000     0.031540000000     1.10838    
Co26     Co     0.589130000000     0.644710000000     0.092460000000     1.02548    
Co27     Co     0.508770000000     0.514870000000     0.091360000000     1.05897    
Co28     Co     0.668790000000     0.632380000000     0.985980000000     1.1125     
Co29     Co     0.587130000000     0.465290000000     0.533680000000     1.07359    
Co30     Co     0.569460000000     0.595440000000     0.627740000000     1.04202    
Co31     Co     0.455770000000     0.452910000000     0.573750000000     1.07636    
Co32     Co     0.602840000000     0.609900000000     0.494660000000     1.10525    
H1       H      0.608800000000     0.473740000000     0.808850000000     0.0432767  
H2       H      0.598170000000     0.591420000000     0.793760000000     0.0404546  
H3       H      0.485210000000     0.561060000000     0.750620000000     0.031297   
H4       H      0.555940000000     0.416900000000     0.863410000000     0.0384471  
H5       H      0.508010000000     0.388220000000     0.759720000000     0.0315267  
H6       H      0.453570000000     0.390940000000     0.809590000000     0.0373435  
H7       H      0.546570000000     0.597880000000     0.845010000000     0.0472208  
H8       H      0.444520000000     0.500570000000     0.807390000000     0.0413535  
H9       H      0.666960000000     0.518580000000     0.330140000000     0.0385807  
H10      H      0.688040000000     0.634510000000     0.353680000000     0.0325006  
H11      H      0.649120000000     0.673900000000     0.273160000000     0.0413654  
H12      H      0.586180000000     0.445990000000     0.346240000000     0.0346143  
H13      H      0.601270000000     0.477390000000     0.240960000000     0.0442696  
H14      H      0.527280000000     0.471550000000     0.269590000000     0.0525576  
H15      H      0.620520000000     0.642340000000     0.378930000000     0.0135528  
H16      H      0.561520000000     0.619770000000     0.288870000000     0.0422489  
H17      H      0.609780000000     0.837320000000     0.584160000000     0.0442446  
H18      H      0.516120000000     0.844310000000     0.446780000000     0.0364646  
H19      H      0.570620000000     0.779270000000     0.459570000000     0.0342793  
H20      H      0.549360000000     0.839000000000     0.628910000000     0.0377551  
H21      H      0.522410000000     0.725030000000     0.627020000000     0.0385917  
H22      H      0.458330000000     0.733360000000     0.586310000000     0.0355549  
H23      H      0.445780000000     0.786690000000     0.488660000000     0.0416756  
H24      H      0.482830000000     0.716930000000     0.448400000000     0.0364605  
H25      H      0.434980000000     0.288160000000     0.710020000000     0.0309522  
H26      H      0.585760000000     0.348910000000     0.741070000000     0.0335584  
H27      H      0.636170000000     0.287190000000     0.710480000000     0.0349832  
H28      H      0.429100000000     0.257150000000     0.639960000000     0.0392503  
H29      H      0.490520000000     0.231760000000     0.752650000000     0.0312881  
H30      H      0.431340000000     0.171610000000     0.703750000000     0.0335784  
H31      H      0.634410000000     0.396730000000     0.681890000000     0.0486993  
H32      H      0.620600000000     0.301350000000     0.635750000000     0.0382326  
H33      H      0.473720000000     0.116650000000     0.799450000000     0.0348213  
H34      H      0.597820000000     0.199590000000     0.782850000000     0.037975   
H35      H      0.657040000000     0.190890000000     0.866890000000     0.0403393  
H36      H      0.436130000000     0.032550000000     0.773930000000     0.0390444  
H37      H      0.452360000000     0.035580000000     0.879460000000     0.0415261  
H38      H      0.502180000000     0.005870000000     0.848050000000     0.0471948  
H39      H      0.649710000000     0.169210000000     0.758270000000     0.0488807  
H40      H      0.645310000000     0.111030000000     0.847090000000     0.0339836  
H41      H      0.517080000000     0.180210000000     0.317990000000     0.038417   
H42      H      0.411700000000     0.062870000000     0.322590000000     0.0389349  
H43      H      0.432300000000     0.984330000000     0.275990000000     0.0427517  
H44      H      0.584460000000     0.202220000000     0.371500000000     0.041712   
H45      H      0.611110000000     0.178790000000     0.275210000000     0.0439013  
H46      H      0.613780000000     0.122990000000     0.331240000000     0.0406749  
H47      H      0.409860000000     0.003720000000     0.376310000000     0.0461455  
H48      H      0.495800000000     0.992890000000     0.329620000000     0.0380503  
H49      H      0.657670000000     0.858830000000     0.097540000000     0.0425889  
H50      H      0.619790000000     0.914930000000     0.958930000000     0.0277154  
H51      H      0.683110000000     0.857150000000     0.986590000000     0.0402566  
H52      H      0.578570000000     0.835150000000     0.129110000000     0.0356357  
H53      H      0.579470000000     0.735210000000     0.100500000000    -0.00708293 
H54      H      0.515680000000     0.745290000000     0.059120000000     0.0321318  
H55      H      0.539620000000     0.837990000000     0.964690000000     0.043729   
H56      H      0.622250000000     0.812110000000     0.928970000000     0.0320831  
H57      H      0.452400000000     0.241120000000     0.105540000000     0.0389282  
H58      H      0.612490000000     0.324900000000     0.110670000000     0.0318975  
H59      H      0.642580000000     0.408030000000     0.184560000000     0.0433852  
H60      H      0.428640000000     0.191760000000     0.170850000000     0.0430003  
H61      H      0.426920000000     0.304270000000     0.174070000000     0.0420828  
H62      H      0.472670000000     0.288760000000     0.230080000000     0.0364695  
H63      H      0.639510000000     0.298150000000     0.175990000000     0.0438338  
H64      H      0.592950000000     0.344970000000     0.235770000000     0.0334447  
H65      H      0.874580000000     0.297810000000     0.424640000000     0.0344778  
H66      H      0.805380000000     0.356640000000     0.428960000000     0.0371767  
H67      H      0.710930000000     0.310770000000     0.494470000000     0.0258937  
H68      H      0.913140000000     0.287490000000     0.490560000000     0.039709   
H69      H      0.789440000000     0.190690000000     0.453960000000     0.0349111  
H70      H      0.810460000000     0.208850000000     0.529130000000     0.0409409  
H71      H      0.823410000000     0.411450000000     0.487270000000     0.041714   
H72      H      0.766130000000     0.312620000000     0.554250000000     0.0473822  
H73      H      0.267400000000     0.820510000000     0.605990000000     0.0451402  
H74      H      0.337760000000     0.737000000000     0.598160000000     0.0485531  
H75      H      0.435630000000     0.791170000000     0.663220000000     0.028654   
H76      H      0.224030000000     0.797460000000     0.672150000000     0.0464707  
H77      H      0.338880000000     0.906570000000     0.673290000000     0.0199845  
H78      H      0.327890000000     0.846660000000     0.729390000000     0.0359778  
H79      H      0.317830000000     0.684350000000     0.662490000000     0.0337372  
H80      H      0.385600000000     0.777830000000     0.723850000000     0.0383455  
H81      H      0.827690000000     0.595950000000     0.435960000000     0.0370887  
H82      H      0.772380000000     0.480100000000     0.482450000000     0.0306562  
H83      H      0.807580000000     0.469860000000     0.582110000000     0.0400262  
H84      H      0.814150000000     0.658930000000     0.464430000000     0.0326277  
H85      H      0.925170000000     0.659050000000     0.497330000000     0.0451681  
H86      H      0.877840000000     0.666090000000     0.552180000000     0.037134   
H87      H      0.705190000000     0.456220000000     0.529390000000     0.0135675  
H88      H      0.788560000000     0.531730000000     0.605560000000     0.0536345  
H89      H      0.391280000000     0.650560000000     0.514540000000     0.0414412  
H90      H      0.373660000000     0.643270000000     0.626570000000     0.0328492  
H91      H      0.257400000000     0.558910000000     0.645610000000     0.0504587  
H92      H      0.400050000000     0.585150000000     0.485200000000     0.0578991  
H93      H      0.287170000000     0.579680000000     0.464730000000     0.0422295  
H94      H      0.281190000000     0.504220000000     0.496990000000     0.0381027  
H95      H      0.371490000000     0.573820000000     0.666400000000     0.036625   
H96      H      0.265890000000     0.492930000000     0.616160000000     0.0352459  
H97      H      0.132320000000     0.663770000000     0.783810000000     0.0490559  
H98      H      0.063900000000     0.513960000000     0.810690000000     0.0488964  
H99      H      0.994660000000     0.487760000000     0.895460000000     0.043369   
H100     H      0.068160000000     0.685600000000     0.767630000000     0.0509119  
H101     H      0.121950000000     0.701370000000     0.872890000000     0.0411842  
H102     H      0.032030000000     0.665240000000     0.863230000000     0.0375845  
H103     H      0.974340000000     0.474780000000     0.792340000000     0.0430863  
H104     H      0.958450000000     0.535980000000     0.865830000000     0.0384589  
H105     H      0.953650000000     0.519080000000     0.336040000000     0.0391861  
H106     H      0.968700000000     0.417380000000     0.347500000000     0.0371241  
H107     H      0.052880000000     0.435390000000     0.282000000000     0.0460555  
H108     H      0.004070000000     0.590460000000     0.380090000000     0.0485558  
H109     H      0.038290000000     0.613450000000     0.279860000000     0.0502646  
H110     H      0.106630000000     0.619090000000     0.326760000000     0.0480922  
H111     H      0.038990000000     0.423510000000     0.390670000000     0.0415328  
H112     H      0.120140000000     0.501530000000     0.323830000000     0.0451285  
H113     H      0.849460000000     0.359500000000     0.078920000000     0.0356245  
H114     H      0.907720000000     0.283660000000     0.018520000000     0.037135   
H115     H      0.813900000000     0.204230000000     0.962600000000     0.0346552  
H116     H      0.848460000000     0.420290000000     0.027440000000     0.0393056  
H117     H      0.737060000000     0.316300000000     0.037870000000     0.0297791  
H118     H      0.764970000000     0.336520000000     0.965990000000     0.0319794  
H119     H      0.924810000000     0.316800000000     0.946190000000     0.0345772  
H120     H      0.806580000000     0.267350000000     0.919390000000     0.0353328  
H121     H      0.406020000000     0.777360000000     0.120020000000     0.0397224  
H122     H      0.310770000000     0.833560000000     0.108220000000     0.0518551  
H123     H      0.239550000000     0.788500000000     0.194350000000     0.0461794  
H124     H      0.464820000000     0.815960000000     0.179870000000     0.0339555  
H125     H      0.361280000000     0.697810000000     0.201260000000     0.029132   
H126     H      0.378860000000     0.762890000000     0.248550000000     0.0384604  
H127     H      0.336960000000     0.897790000000     0.160400000000     0.0268261  
H128     H      0.312660000000     0.819250000000     0.241230000000     0.03927    
H129     H      0.831440000000     0.490130000000     0.083990000000     0.038849   
H130     H      0.910460000000     0.572590000000     0.984120000000     0.0428609  
H131     H      0.846330000000     0.624030000000     0.958250000000     0.0369291  
H132     H      0.869280000000     0.534390000000     0.150200000000     0.0405703  
H133     H      0.768640000000     0.539020000000     0.123130000000     0.050753   
H134     H      0.841340000000     0.621500000000     0.120820000000     0.0425511  
H135     H      0.966930000000     0.657220000000     0.006680000000     0.048745   
H136     H      0.879260000000     0.679850000000     0.017880000000     0.0369388  
H137     H      0.356460000000     0.633260000000     0.135170000000     0.0363204  
H138     H      0.276040000000     0.511890000000     0.113630000000     0.0541821  
H139     H      0.259780000000     0.488570000000     0.005290000000     0.0356917  
H140     H      0.444140000000     0.670090000000     0.123720000000     0.0334649  
H141     H      0.376820000000     0.698700000000     0.045130000000     0.0434762  
H142     H      0.417700000000     0.658220000000     0.016960000000     0.0478925  
H143     H      0.308970000000     0.461110000000     0.093790000000     0.0400335  
H144     H      0.349280000000     0.532510000000     0.000900000000     0.0439373  
H145     H      0.786580000000     0.784260000000     0.677320000000     0.034926   
H146     H      0.782180000000     0.832170000000     0.560930000000     0.042411   
H147     H      0.873210000000     0.839400000000     0.499510000000     0.0361567  
H148     H      0.791720000000     0.709150000000     0.677170000000     0.0441392  
H149     H      0.905080000000     0.830590000000     0.682760000000     0.0402751  
H150     H      0.901420000000     0.765040000000     0.641830000000     0.0398087  
H151     H      0.757030000000     0.769300000000     0.507590000000     0.039089   
H152     H      0.860480000000     0.762220000000     0.531990000000     0.0328551  
H153     H      0.385810000000     0.253540000000     0.396510000000     0.0354407  
H154     H      0.322510000000     0.310800000000     0.385700000000     0.0372747  
H155     H      0.238680000000     0.279520000000     0.456460000000     0.0446893  
H156     H      0.452540000000     0.276950000000     0.450560000000     0.0413088  
H157     H      0.338960000000     0.169700000000     0.471780000000     0.0476232  
H158     H      0.376590000000     0.234130000000     0.526280000000     0.0403765  
H159     H      0.345730000000     0.383790000000     0.425940000000     0.0488649  
H160     H      0.302210000000     0.316330000000     0.514170000000     0.0323052  
H161     H      0.878170000000     0.156660000000     0.514990000000     0.0360845  
H162     H      0.883920000000     0.146970000000     0.626730000000     0.0346549  
H163     H      0.774550000000     0.077990000000     0.660650000000     0.0369451  
H164     H      0.874370000000     0.090140000000     0.474840000000     0.041802   
H165     H      0.762780000000     0.081190000000     0.476780000000     0.0355725  
H166     H      0.762720000000     0.008340000000     0.508360000000     0.040955   
H167     H      0.881940000000     0.073790000000     0.659610000000     0.0373107  
H168     H      0.764810000000     0.003450000000     0.629340000000     0.0355239  
H169     H      0.275150000000     0.954250000000     0.632350000000     0.0249936  
H170     H      0.344020000000     0.063920000000     0.674870000000     0.0318743  
H171     H      0.402870000000     0.161020000000     0.603470000000     0.0483435  
H172     H      0.198050000000     0.932480000000     0.592740000000     0.0465013  
H173     H      0.299280000000     0.964190000000     0.531460000000     0.0462023  
H174     H      0.259160000000     0.011830000000     0.514010000000     0.0667531  
H175     H      0.313220000000     0.121460000000     0.675910000000     0.0352579  
H176     H      0.323320000000     0.138390000000     0.570730000000     0.0550812  
H177     H      0.084990000000     0.823110000000     0.401470000000     0.0372506  
H178     H      0.981470000000     0.781520000000     0.461140000000     0.0376755  
H179     H      0.999280000000     0.763420000000     0.565150000000     0.0452569  
H180     H      0.155780000000     0.905410000000     0.413810000000     0.0438023  
H181     H      0.161730000000     0.804120000000     0.461220000000     0.0420445  
H182     H      0.183490000000     0.873100000000     0.506580000000     0.0398271  
H183     H      0.976330000000     0.841260000000     0.503270000000     0.0425379  
H184     H      0.068090000000     0.848910000000     0.572010000000     0.0531481  
H185     H      0.145680000000     0.325850000000     0.698870000000     0.036497   
H186     H      0.029960000000     0.246380000000     0.737300000000     0.0365802  
H187     H      0.950190000000     0.279840000000     0.697680000000     0.0371803  
H188     H      0.165140000000     0.312650000000     0.629560000000     0.0380341  
H189     H      0.144410000000     0.406520000000     0.630640000000     0.0332745  
H190     H      0.087030000000     0.342930000000     0.581010000000     0.0272125  
H191     H      0.969050000000     0.179090000000     0.694000000000     0.0349294  
H192     H      0.955070000000     0.258080000000     0.625720000000     0.0418048  
H193     H      0.157700000000     0.144010000000     0.837870000000     0.0545218  
H194     H      0.120170000000     0.007580000000     0.832440000000     0.0398129  
H195     H      0.005360000000     0.942430000000     0.867820000000     0.0395543  
H196     H      0.123460000000     0.173060000000     0.779240000000     0.0456902  
H197     H      0.056480000000     0.149070000000     0.866440000000     0.0481432  
H198     H      0.006770000000     0.096350000000     0.808050000000     0.0335652  
H199     H      0.063130000000     0.963720000000     0.773210000000     0.0445914  
H200     H      0.972460000000     0.974660000000     0.811070000000     0.0322573  
H201     H      0.146960000000     0.261310000000     0.312750000000     0.0387809  
H202     H      0.237050000000     0.230570000000     0.319000000000     0.036634   
H203     H      0.204740000000     0.128500000000     0.372860000000     0.0518818  
H204     H      0.076590000000     0.220190000000     0.262080000000     0.0428571  
H205     H      0.052180000000     0.180280000000     0.366920000000     0.0438905  
H206     H      0.029060000000     0.114480000000     0.316490000000     0.0378615  
H207     H      0.232930000000     0.170340000000     0.271070000000     0.0438338  
H208     H      0.138980000000     0.077720000000     0.320500000000     0.04329    
H209     H      0.867420000000     0.801150000000     0.174540000000     0.0361653  
H210     H      0.905010000000     0.766100000000     0.088730000000     0.0394597  
H211     H      0.837310000000     0.761080000000     0.998710000000     0.0366322  
H212     H      0.888640000000     0.886670000000     0.180460000000     0.0415704  
H213     H      0.767230000000     0.809220000000     0.146980000000     0.039429   
H214     H      0.812890000000     0.876720000000     0.096100000000     0.0406997  
H215     H      0.955740000000     0.828430000000     0.036520000000     0.0390215  
H216     H      0.859940000000     0.846640000000     0.006550000000     0.0396722  
H217     H      0.337020000000     0.281220000000     0.964180000000     0.055636   
H218     H      0.289130000000     0.351200000000     0.983390000000     0.0483212  
H219     H      0.269560000000     0.351520000000     0.091400000000     0.0412452  
H220     H      0.423660000000     0.309170000000     0.983150000000     0.0376674  
H221     H      0.347090000000     0.223450000000     0.058060000000     0.0470575  
H222     H      0.402910000000     0.304430000000     0.085030000000     0.0493402  
H223     H      0.340110000000     0.432550000000     0.012480000000     0.0410942  
H224     H      0.355250000000     0.378870000000     0.107380000000     0.0681341  
H225     H      0.865590000000     0.165070000000     0.177140000000     0.0395061  
H226     H      0.876470000000     0.154190000000     0.064520000000     0.0371626  
H227     H      0.881680000000     0.051240000000     0.041140000000     0.0485842  
H228     H      0.790530000000     0.098680000000     0.208280000000     0.0384064  
H229     H      0.898430000000     0.088090000000     0.221920000000     0.0359383  
H230     H      0.822550000000     0.015210000000     0.195510000000     0.0358698  
H231     H      0.802800000000     0.093110000000     0.025340000000     0.0385799  
H232     H      0.808680000000     0.000270000000     0.081740000000     0.04054    
H233     H      0.287270000000     0.035840000000     0.015110000000     0.0445571  
H234     H      0.375340000000     0.192570000000     0.985770000000     0.0394872  
H235     H      0.464040000000     0.199700000000     0.937120000000     0.0372198  
H236     H      0.236390000000     0.998880000000     0.950220000000     0.034002   
H237     H      0.340050000000     0.987340000000     0.964040000000     0.0458597  
H238     H      0.334480000000     0.026770000000     0.897610000000     0.0349537  
H239     H      0.353170000000     0.202550000000     0.911560000000     0.038359   
H240     H      0.409370000000     0.146730000000     0.880700000000     0.0317742  
H241     H      0.227990000000     0.888210000000     0.085400000000     0.0342749  
H242     H      0.182060000000     0.850500000000     0.196160000000     0.0373831  
H243     H      0.104860000000     0.888800000000     0.212020000000     0.0376028  
H244     H      0.167860000000     0.838040000000     0.029380000000     0.042441   
H245     H      0.176560000000     0.948370000000     0.042250000000     0.0238099  
H246     H      0.092540000000     0.877570000000     0.046400000000     0.0283892  
H247     H      0.097970000000     0.778500000000     0.199670000000     0.0494472  
H248     H      0.046350000000     0.838720000000     0.154830000000     0.0408649  
H249     H      0.022120000000     0.301250000000     0.988930000000     0.0398976  
H250     H      0.151420000000     0.383200000000     0.999920000000     0.029916   
H251     H      0.194180000000     0.396320000000     0.105850000000     0.0417695  
H252     H      0.990240000000     0.214490000000     0.005950000000     0.0460315  
H253     H      0.978990000000     0.279870000000     0.087150000000     0.0384879  
H254     H      0.025570000000     0.239490000000     0.109030000000     0.0212216  
H255     H      0.204140000000     0.348940000000     0.014880000000     0.0368236  
H256     H      0.153000000000     0.308250000000     0.114350000000     0.0369849  
N1       N      0.493820000000     0.472880000000     0.750740000000    -0.175527   
N2       N      0.563460000000     0.513760000000     0.857900000000    -0.176459   
N3       N      0.605170000000     0.571140000000     0.249380000000    -0.180209   
N4       N      0.598790000000     0.541170000000     0.366040000000    -0.180266   
N5       N      0.523890000000     0.722510000000     0.534100000000    -0.17829    
N6       N      0.534660000000     0.851520000000     0.538010000000    -0.177309   
N7       N      0.534380000000     0.224880000000     0.678430000000    -0.176571   
N8       N      0.525810000000     0.338620000000     0.664740000000    -0.176623   
N9       N      0.558540000000     0.105400000000     0.879450000000    -0.180436   
N10      N      0.543400000000     0.097020000000     0.761640000000    -0.177775   
N11      N      0.528040000000     0.077400000000     0.273250000000    -0.17864    
N12      N      0.497970000000     0.102310000000     0.379440000000    -0.178439   
N13      N      0.599090000000     0.764450000000     0.011730000000    -0.186456   
N14      N      0.590900000000     0.878910000000     0.044670000000    -0.177061   
N15      N      0.534790000000     0.361590000000     0.169480000000    -0.172754   
N16      N      0.533460000000     0.240300000000     0.152850000000    -0.174455   
N17      N      0.743710000000     0.239280000000     0.491360000000    -0.174952   
N18      N      0.874940000000     0.354970000000     0.492560000000    -0.176472   
N19      N      0.391700000000     0.853210000000     0.665240000000    -0.175603   
N20      N      0.264420000000     0.736260000000     0.650250000000    -0.173763   
N21      N      0.872390000000     0.571640000000     0.552130000000    -0.179599   
N22      N      0.755070000000     0.559290000000     0.499190000000    -0.181732   
N23      N      0.262470000000     0.561360000000     0.553130000000    -0.176829   
N24      N      0.391400000000     0.581040000000     0.577180000000    -0.17819    
N25      N      0.062590000000     0.595280000000     0.889450000000    -0.182101   
N26      N      0.033840000000     0.580070000000     0.770220000000    -0.172662   
N27      N      0.057490000000     0.531330000000     0.276070000000    -0.17279    
N28      N      0.025190000000     0.509080000000     0.391410000000    -0.175419   
N29      N      0.771210000000     0.254310000000     0.003180000000    -0.177405   
N30      N      0.899940000000     0.370580000000     0.002510000000    -0.18315    
N31      N      0.293380000000     0.735560000000     0.192380000000    -0.170894   
N32      N      0.403410000000     0.859140000000     0.154350000000    -0.17496    
N33      N      0.800650000000     0.582100000000     0.038060000000    -0.177882   
N34      N      0.922030000000     0.583920000000     0.074340000000    -0.172881   
N35      N      0.312150000000     0.595260000000     0.022210000000    -0.193044   
N36      N      0.382460000000     0.563210000000     0.110770000000    -0.168933   
N37      N      0.897540000000     0.841580000000     0.591050000000    -0.181402   
N38      N      0.761410000000     0.737100000000     0.596800000000    -0.176811   
N39      N      0.287490000000     0.223930000000     0.484230000000    -0.172443   
N40      N      0.404990000000     0.336580000000     0.445840000000    -0.176649   
N41      N      0.758360000000     0.071730000000     0.568930000000    -0.181311   
N42      N      0.883710000000     0.081700000000     0.566930000000    -0.183247   
N43      N      0.353620000000     0.068090000000     0.557690000000    -0.175663   
N44      N      0.248370000000     0.029700000000     0.631590000000    -0.177301   
N45      N      0.089390000000     0.786830000000     0.523590000000    -0.160775   
N46      N      0.066850000000     0.880050000000     0.458180000000    -0.157853   
N47      N      0.040550000000     0.347390000000     0.655150000000    -0.179469   
N48      N      0.066090000000     0.239340000000     0.658420000000    -0.172937   
N49      N      0.033530000000     0.046140000000     0.874300000000    -0.1776     
N50      N      0.103630000000     0.071430000000     0.773390000000    -0.180277   
N51      N      0.114760000000     0.135810000000     0.371440000000    -0.180889   
N52      N      0.152210000000     0.191690000000     0.260640000000    -0.176748   
N53      N      0.796030000000     0.782070000000     0.071310000000    -0.187467   
N54      N      0.927360000000     0.864320000000     0.107310000000    -0.188045   
N55      N      0.301900000000     0.281820000000     0.077330000000    -0.170606   
N56      N      0.390180000000     0.378490000000     0.998200000000    -0.176365   
N57      N      0.894830000000     0.067420000000     0.132770000000    -0.176199   
N58      N      0.791820000000     0.099300000000     0.116070000000    -0.175994   
N59      N      0.406690000000     0.094520000000     0.958520000000    -0.175263   
N60      N      0.290200000000     0.106620000000     0.951620000000    -0.164907   
N61      N      0.136150000000     0.923510000000     0.126650000000    -0.187234   
N62      N      0.139310000000     0.804160000000     0.115800000000    -0.164688   
N63      N      0.086240000000     0.344570000000     0.098140000000    -0.18635    
N64      N      0.099510000000     0.277270000000     0.006100000000    -0.179742   
O1       O      0.065700000000     0.167860000000     0.009840000000    -0.436531   
O2       O      0.023700000000     0.943390000000     0.065150000000    -0.455826   
O3       O      0.103670000000     0.109780000000     0.946690000000    -0.438315   
O4       O      0.995290000000     0.078330000000     0.172140000000    -0.415677   
O5       O      0.048140000000     0.002250000000     0.961820000000    -0.435524   
O6       O      0.992760000000     0.118860000000     0.087290000000    -0.457051   
O7       O      0.982680000000     0.972750000000     0.132290000000    -0.493455   
O8       O      0.166300000000     0.230050000000     0.991810000000    -0.350871   
O9       O      0.099720000000     0.182660000000     0.171500000000    -0.436217   
O10      O      0.187260000000     0.065490000000     0.991060000000    -0.496124   
O11      O      0.228920000000     0.170720000000     0.070590000000    -0.434956   
O12      O      0.102640000000     0.989710000000     0.165780000000    -0.435287   
O13      O      0.161670000000     0.026150000000     0.092770000000    -0.466119   
O14      O      0.187680000000     0.233030000000     0.090250000000    -0.417202   
O15      O      0.138190000000     0.115950000000     0.194440000000    -0.451218   
O16      O      0.236490000000     0.168880000000     0.959400000000    -0.39216    
O17      O      0.091840000000     0.089630000000     0.072360000000    -0.514927   
O18      O      0.126160000000     0.078510000000     0.449470000000    -0.452149   
O19      O      0.037010000000     0.127150000000     0.660320000000    -0.414518   
O20      O      0.957440000000     0.065630000000     0.519400000000    -0.447921   
O21      O      0.191150000000     0.185820000000     0.533170000000    -0.440272   
O22      O      0.936830000000     0.028590000000     0.607750000000    -0.46888    
O23      O      0.221930000000     0.113840000000     0.517260000000    -0.391713   
O24      O      0.114590000000     0.199210000000     0.602320000000    -0.445374   
O25      O      0.043030000000     0.093560000000     0.446240000000    -0.440547   
O26      O      0.144500000000     0.001240000000     0.590720000000    -0.442563   
O27      O      0.983880000000     0.939960000000     0.629860000000    -0.442696   
O28      O      0.040620000000     0.961270000000     0.478020000000    -0.460439   
O29      O      0.143810000000     0.135560000000     0.691030000000    -0.434365   
O30      O      0.086070000000     0.030010000000     0.684030000000    -0.4532     
O31      O      0.148590000000     0.987160000000     0.481340000000    -0.416126   
O32      O      0.210790000000     0.104700000000     0.620560000000    -0.440947   
O33      O      0.944410000000     0.942410000000     0.543370000000    -0.463787   
O34      O      0.076870000000     0.070010000000     0.568720000000    -0.554301   
O35      O      0.016470000000     0.423270000000     0.005240000000    -0.460224   
O36      O      0.126770000000     0.705790000000     0.152680000000    -0.429684   
O37      O      0.974030000000     0.535250000000     0.127580000000    -0.426098   
O38      O      0.132500000000     0.647830000000     0.968060000000    -0.427592   
O39      O      0.036000000000     0.621960000000     0.075400000000    -0.410814   
O40      O      0.093940000000     0.540140000000     0.956070000000    -0.497175   
O41      O      0.143410000000     0.725350000000     0.060600000000    -0.416012   
O42      O      0.970730000000     0.471500000000     0.042250000000    -0.472647   
O43      O      0.199110000000     0.545420000000     0.017320000000    -0.561649   
O44      O      0.070560000000     0.590260000000     0.191260000000    -0.395971   
O45      O      0.031870000000     0.404770000000     0.107050000000    -0.42763    
O46      O      0.247990000000     0.709040000000     0.102400000000    -0.44759    
O47      O      0.193210000000     0.641540000000     0.168940000000    -0.409507   
O48      O      0.132650000000     0.454280000000     0.077010000000    -0.490004   
O49      O      0.253020000000     0.652130000000     0.016030000000    -0.438523   
O50      O      0.055600000000     0.490030000000     0.188640000000    -0.441996   
O51      O      0.109260000000     0.561020000000     0.078430000000    -0.538123   
O52      O      0.981670000000     0.401110000000     0.538370000000    -0.427927   
O53      O      0.078200000000     0.718950000000     0.602620000000    -0.412972   
O54      O      0.925060000000     0.533930000000     0.616630000000    -0.461473   
O55      O      0.066850000000     0.584460000000     0.463150000000    -0.445177   
O56      O      0.985570000000     0.610360000000     0.554940000000    -0.443553   
O57      O      0.071620000000     0.492270000000     0.476960000000    -0.42894    
O58      O      0.108100000000     0.698130000000     0.521670000000    -0.447806   
O59      O      0.917490000000     0.442030000000     0.554020000000    -0.473839   
O60      O      0.161900000000     0.537280000000     0.583100000000    -0.470356   
O61      O      0.030480000000     0.615670000000     0.676150000000    -0.394919   
O62      O      0.974410000000     0.396820000000     0.642810000000    -0.41637    
O63      O      0.206460000000     0.674990000000     0.572490000000    -0.445545   
O64      O      0.149910000000     0.666490000000     0.645220000000    -0.432974   
O65      O      0.079220000000     0.457580000000     0.638930000000    -0.450852   
O66      O      0.184690000000     0.580880000000     0.500380000000    -0.396764   
O67      O      0.002710000000     0.510640000000     0.694540000000    -0.465444   
O68      O      0.056740000000     0.547610000000     0.582260000000    -0.551039   
O69      O      0.442390000000     0.041580000000     0.025080000000    -0.441333   
O70      O      0.561350000000     0.958610000000     0.024740000000    -0.443119   
O71      O      0.599080000000     0.157220000000     0.964890000000    -0.442758   
O72      O      0.509960000000     0.949760000000     0.164990000000    -0.430486   
O73      O      0.552620000000     0.048410000000     0.961930000000    -0.447543   
O74      O      0.443690000000     0.950330000000     0.093830000000    -0.437679   
O75      O      0.606720000000     0.957950000000     0.109270000000    -0.429552   
O76      O      0.502620000000     0.150530000000     0.018300000000    -0.427408   
O77      O      0.483830000000     0.036450000000     0.184660000000    -0.448641   
O78      O      0.690810000000     0.143010000000     0.994960000000    -0.433213   
O79      O      0.590630000000     0.192130000000     0.121150000000    -0.439189   
O80      O      0.693750000000     0.091960000000     0.144110000000    -0.427748   
O81      O      0.694210000000     0.054850000000     0.060020000000    -0.447422   
O82      O      0.481700000000     0.131190000000     0.119150000000    -0.418047   
O83      O      0.593390000000     0.087020000000     0.199690000000    -0.427533   
O84      O      0.685580000000     0.199260000000     0.064100000000    -0.441497   
O85      O      0.571010000000     0.071370000000     0.078520000000    -0.510501   
O86      O      0.421460000000     0.028760000000     0.540520000000    -0.436007   
O87      O      0.522480000000     0.942510000000     0.508300000000    -0.419493   
O88      O      0.550370000000     0.146170000000     0.465800000000    -0.451882   
O89      O      0.502070000000     0.936720000000     0.661350000000    -0.418179   
O90      O      0.503960000000     0.038380000000     0.454740000000    -0.434435   
O91      O      0.428600000000     0.937130000000     0.598470000000    -0.436926   
O92      O      0.582550000000     0.948270000000     0.587140000000    -0.456977   
O93      O      0.467030000000     0.134860000000     0.543940000000    -0.422526   
O94      O      0.484260000000     0.021190000000     0.692300000000    -0.45277    
O95      O      0.649420000000     0.133920000000     0.473950000000    -0.416244   
O96      O      0.579560000000     0.179880000000     0.624560000000    -0.450648   
O97      O      0.676170000000     0.079280000000     0.612780000000    -0.441339   
O98      O      0.656460000000     0.040040000000     0.525750000000    -0.466546   
O99      O      0.474460000000     0.116370000000     0.642880000000    -0.416832   
O100     O      0.593820000000     0.076710000000     0.689490000000    -0.436177   
O101     O      0.654790000000     0.189530000000     0.548560000000    -0.456347   
O102     O      0.547770000000     0.058840000000     0.573470000000    -0.520149   
O103     O      0.503250000000     0.422680000000     0.014110000000    -0.465845   
O104     O      0.557120000000     0.653190000000     0.020970000000    -0.470314   
O105     O      0.426080000000     0.491740000000     0.121640000000    -0.410772   
O106     O      0.602530000000     0.587810000000     0.930470000000    -0.479746   
O107     O      0.494400000000     0.597820000000     0.105910000000    -0.501985   
O108     O      0.601590000000     0.493250000000     0.946780000000    -0.435271   
O109     O      0.647220000000     0.707480000000     0.978950000000    -0.420846   
O110     O      0.462520000000     0.488930000000     0.019190000000    -0.441092   
O111     O      0.688390000000     0.518250000000     0.048540000000    -0.485159   
O112     O      0.616880000000     0.636420000000     0.168980000000    -0.458176   
O113     O      0.490550000000     0.420970000000     0.117070000000    -0.376027   
O114     O      0.736670000000     0.677980000000     0.037520000000    -0.506818   
O115     O      0.683580000000     0.713330000000     0.085380000000    -0.446672   
O116     O      0.594750000000     0.450170000000     0.109120000000    -0.447135   
O117     O      0.718770000000     0.584680000000     0.975420000000    -0.434415   
O118     O      0.549210000000     0.529890000000     0.164710000000    -0.466716   
O119     O      0.600120000000     0.564730000000     0.053980000000    -0.523147   
O120     O      0.502810000000     0.385390000000     0.504170000000    -0.431956   
O121     O      0.571350000000     0.670060000000     0.586500000000    -0.449045   
O122     O      0.429980000000     0.514370000000     0.551520000000    -0.454467   
O123     O      0.546100000000     0.548840000000     0.440470000000    -0.453517   
O124     O      0.472320000000     0.569350000000     0.631240000000    -0.421603   
O125     O      0.595330000000     0.489820000000     0.451650000000    -0.4369     
O126     O      0.538510000000     0.639550000000     0.497750000000    -0.433915   
O127     O      0.441400000000     0.431750000000     0.495990000000    -0.445328   
O128     O      0.670960000000     0.534170000000     0.557230000000    -0.451875   
O129     O      0.565090000000     0.527560000000     0.679520000000    -0.432366   
O130     O      0.472100000000     0.378890000000     0.601540000000    -0.433019   
O131     O      0.665810000000     0.677030000000     0.542470000000    -0.476779   
O132     O      0.668650000000     0.637070000000     0.628750000000    -0.409866   
O133     O      0.581570000000     0.433060000000     0.609100000000    -0.449649   
O134     O      0.681610000000     0.598030000000     0.483570000000    -0.42732    
O135     O      0.458100000000     0.463430000000     0.657050000000    -0.431177   
O136     O      0.554280000000     0.531210000000     0.557990000000    -0.520627   


