data_structure

_audit_creation_method RASPA-1.0
_audit_creation_date 2023-5-19
_audit_author_name 'Poobodin Mano'

_cell_length_a    49.2948
_cell_length_b    48.822
_cell_length_c    51.5314
_cell_angle_alpha 90
_cell_angle_beta  90
_cell_angle_gamma 90
_cell_volume      124019

_symmetry_cell_setting          triclinic
_symmetry_space_group_name_Hall 'P 1'
_symmetry_space_group_name_H-M  'P 1'
_symmetry_Int_Tables_number     1

_symmetry_equiv_pos_as_xyz 'x,y,z'

loop_
_atom_site_label
_atom_site_type_symbol
_atom_site_fract_x
_atom_site_fract_y
_atom_site_fract_z
_atom_site_charge
C1       C      0.464170000000     0.465850000000     0.034690000000     0.400785   
C2       C      0.062800000000     0.065200000000     0.034810000000     0.400736   
C3       C      0.062810000000     0.465950000000     0.034820000000     0.40053    
C4       C      0.464180000000     0.065150000000     0.034810000000     0.400818   
C5       C      0.466700000000     0.062730000000     0.465750000000     0.394578   
C6       C      0.060320000000     0.468400000000     0.465740000000     0.394914   
C7       C      0.466810000000     0.468400000000     0.465660000000     0.394876   
C8       C      0.060260000000     0.062760000000     0.465740000000     0.394743   
C9       C      0.312780000000     0.315160000000     0.219420000000     0.40089    
C10      C      0.214160000000     0.215930000000     0.219580000000     0.400908   
C11      C      0.312820000000     0.215870000000     0.219550000000     0.401099   
C12      C      0.214140000000     0.315190000000     0.219560000000     0.400991   
C13      C      0.216810000000     0.312750000000     0.288630000000     0.394602   
C14      C      0.310300000000     0.218430000000     0.288590000000     0.394973   
C15      C      0.310330000000     0.312780000000     0.288490000000     0.394687   
C16      C      0.216770000000     0.218400000000     0.288640000000     0.394972   
C17      C      0.068310000000     0.104840000000     0.061310000000     0.072406   
C18      C      0.082990000000     0.119990000000     0.079500000000    -0.0917952  
C19      C      0.107810000000     0.110090000000     0.088830000000     0.0493437  
C20      C      0.117410000000     0.085030000000     0.079330000000    -0.0918315  
C21      C      0.102230000000     0.070410000000     0.061120000000     0.0724412  
C22      C      0.123530000000     0.125710000000     0.108490000000    -0.00631737 
C23      C      0.125730000000     0.154360000000     0.106800000000    -0.0353289  
C24      C      0.140470000000     0.169040000000     0.125330000000    -0.0352507  
C25      C      0.153330000000     0.155410000000     0.145970000000    -0.006328   
C26      C      0.151130000000     0.126760000000     0.147660000000    -0.0352814  
C27      C      0.136390000000     0.112090000000     0.129130000000    -0.0352601  
C28      C      0.169070000000     0.171030000000     0.165620000000     0.049404   
C29      C      0.159490000000     0.196110000000     0.175130000000    -0.0919275  
C30      C      0.174700000000     0.210720000000     0.193310000000     0.0726238  
C31      C      0.208610000000     0.176280000000     0.193100000000     0.0725024  
C32      C      0.193890000000     0.161120000000     0.174940000000    -0.0918358  
C33      C      0.065320000000     0.102020000000     0.438650000000     0.0715158  
C34      C      0.080430000000     0.117620000000     0.421090000000    -0.0915391  
C35      C      0.105530000000     0.108010000000     0.412170000000     0.0489807  
C36      C      0.114630000000     0.082450000000     0.420900000000    -0.0915556  
C37      C      0.099040000000     0.067400000000     0.438460000000     0.07158    
C38      C      0.122310000000     0.124720000000     0.394150000000    -0.00628827 
C39      C      0.124620000000     0.153190000000     0.397600000000    -0.0352067  
C40      C      0.140630000000     0.168880000000     0.380860000000    -0.0354182  
C41      C      0.154730000000     0.156470000000     0.360270000000    -0.00618923 
C42      C      0.152420000000     0.127990000000     0.356810000000    -0.0353238  
C43      C      0.136410000000     0.112300000000     0.373560000000    -0.0353512  
C44      C      0.171510000000     0.173170000000     0.342250000000     0.0488469  
C45      C      0.162420000000     0.198740000000     0.333520000000    -0.0913443  
C46      C      0.178000000000     0.213780000000     0.315940000000     0.0715152  
C47      C      0.211710000000     0.179150000000     0.315760000000     0.0716045  
C48      C      0.196610000000     0.163560000000     0.333310000000    -0.0914248  
C49      C      0.208590000000     0.354840000000     0.193090000000     0.0725383  
C50      C      0.193870000000     0.370000000000     0.174920000000    -0.0917903  
C51      C      0.169050000000     0.360090000000     0.165620000000     0.0494609  
C52      C      0.159470000000     0.335030000000     0.175130000000    -0.0917839  
C53      C      0.174680000000     0.320400000000     0.193310000000     0.072482   
C54      C      0.153320000000     0.375720000000     0.145980000000    -0.00633971 
C55      C      0.151110000000     0.404370000000     0.147680000000    -0.0352814  
C56      C      0.136380000000     0.419050000000     0.129150000000    -0.0352109  
C57      C      0.123520000000     0.405430000000     0.108490000000    -0.0063339  
C58      C      0.125720000000     0.376780000000     0.106800000000    -0.0353338  
C59      C      0.140440000000     0.362100000000     0.125330000000    -0.0351946  
C60      C      0.107810000000     0.421060000000     0.088840000000     0.0494295  
C61      C      0.117400000000     0.446130000000     0.079340000000    -0.091842   
C62      C      0.102230000000     0.460740000000     0.061140000000     0.0724872  
C63      C      0.068320000000     0.426310000000     0.061310000000     0.072603   
C64      C      0.083000000000     0.411150000000     0.079500000000    -0.0919221  
C65      C      0.424780000000     0.070330000000     0.061170000000     0.0725931  
C66      C      0.409580000000     0.084960000000     0.079340000000    -0.0917898  
C67      C      0.419150000000     0.110050000000     0.088800000000     0.0495496  
C68      C      0.443950000000     0.119970000000     0.079450000000    -0.0918067  
C69      C      0.458630000000     0.104830000000     0.061250000000     0.0726043  
C70      C      0.403440000000     0.125670000000     0.108460000000    -0.00622255 
C71      C      0.375050000000     0.127630000000     0.106660000000    -0.0352074  
C72      C      0.360270000000     0.142220000000     0.125220000000    -0.0351379  
C73      C      0.373550000000     0.155190000000     0.146010000000    -0.00623749 
C74      C      0.401930000000     0.153220000000     0.147810000000    -0.0350756  
C75      C      0.416710000000     0.138640000000     0.129260000000    -0.0351723  
C76      C      0.357840000000     0.170850000000     0.165640000000     0.0495314  
C77      C      0.333030000000     0.160960000000     0.175010000000    -0.0916769  
C78      C      0.318350000000     0.176140000000     0.193180000000     0.0726038  
C79      C      0.352220000000     0.210610000000     0.193230000000     0.0728398  
C80      C      0.367420000000     0.195950000000     0.175080000000    -0.0918287  
C81      C      0.428050000000     0.463780000000     0.438340000000     0.0717691  
C82      C      0.412470000000     0.448740000000     0.420750000000    -0.0915091  
C83      C      0.421600000000     0.423190000000     0.411990000000     0.0491168  
C84      C      0.446700000000     0.413590000000     0.420930000000    -0.0914518  
C85      C      0.461780000000     0.429180000000     0.438500000000     0.0717412  
C86      C      0.404830000000     0.406500000000     0.393950000000    -0.00615731 
C87      C      0.390720000000     0.418920000000     0.373370000000    -0.0351793  
C88      C      0.374720000000     0.403240000000     0.356610000000    -0.0352248  
C89      C      0.372440000000     0.374750000000     0.360040000000    -0.00610176 
C90      C      0.386550000000     0.362330000000     0.380620000000    -0.0352361  
C91      C      0.402550000000     0.378010000000     0.397380000000    -0.0351273  
C92      C      0.355650000000     0.358050000000     0.342020000000     0.0491023  
C93      C      0.330540000000     0.367660000000     0.333100000000    -0.09151    
C94      C      0.315430000000     0.352060000000     0.315570000000     0.071812   
C95      C      0.349140000000     0.317440000000     0.315720000000     0.0718065  
C96      C      0.364750000000     0.332490000000     0.333270000000    -0.0914655  
C97      C      0.427930000000     0.067310000000     0.438460000000     0.0716824  
C98      C      0.412290000000     0.082360000000     0.420940000000    -0.09166    
C99      C      0.421330000000     0.107950000000     0.412230000000     0.0490992  
C100     C      0.446420000000     0.117600000000     0.421150000000    -0.0914703  
C101     C      0.461550000000     0.102030000000     0.438710000000     0.0716672  
C102     C      0.404520000000     0.124630000000     0.394220000000    -0.00624297 
C103     C      0.376230000000     0.126250000000     0.397510000000    -0.0352442  
C104     C      0.360410000000     0.142050000000     0.380700000000    -0.035339   
C105     C      0.372490000000     0.156620000000     0.360190000000    -0.00617333 
C106     C      0.400760000000     0.155010000000     0.356910000000    -0.0352341  
C107     C      0.416590000000     0.139210000000     0.373720000000    -0.0352731  
C108     C      0.355670000000     0.173280000000     0.342170000000     0.0490363  
C109     C      0.330580000000     0.163620000000     0.333260000000    -0.0913498  
C110     C      0.315450000000     0.179170000000     0.315680000000     0.0716291  
C111     C      0.349070000000     0.213890000000     0.315890000000     0.071677   
C112     C      0.364710000000     0.198860000000     0.333440000000    -0.0915421  
C113     C      0.178080000000     0.317390000000     0.315950000000     0.0716485  
C114     C      0.162510000000     0.332440000000     0.333540000000    -0.0914579  
C115     C      0.171620000000     0.358010000000     0.342260000000     0.0490117  
C116     C      0.196700000000     0.367620000000     0.333300000000    -0.0914366  
C117     C      0.211790000000     0.352020000000     0.315730000000     0.0716558  
C118     C      0.154850000000     0.374720000000     0.360290000000    -0.00616769 
C119     C      0.140780000000     0.362310000000     0.380900000000    -0.0352453  
C120     C      0.124770000000     0.377990000000     0.397650000000    -0.0352417  
C121     C      0.122450000000     0.406470000000     0.394190000000    -0.0062022  
C122     C      0.136540000000     0.418880000000     0.373590000000    -0.0352597  
C123     C      0.152550000000     0.403200000000     0.356840000000    -0.0352625  
C124     C      0.105650000000     0.423170000000     0.412190000000     0.0490351  
C125     C      0.080560000000     0.413550000000     0.421120000000    -0.0914298  
C126     C      0.065430000000     0.429130000000     0.438660000000     0.0716279  
C127     C      0.099120000000     0.463780000000     0.438490000000     0.0716603  
C128     C      0.114730000000     0.448730000000     0.420930000000    -0.0914733  
C129     C      0.458620000000     0.426120000000     0.061070000000     0.0727249  
C130     C      0.443930000000     0.410930000000     0.079230000000    -0.091877   
C131     C      0.419110000000     0.420820000000     0.088560000000     0.0496044  
C132     C      0.409520000000     0.445910000000     0.079110000000    -0.0918328  
C133     C      0.424740000000     0.460580000000     0.060980000000     0.0726824  
C134     C      0.403390000000     0.405160000000     0.108190000000    -0.00619107 
C135     C      0.416650000000     0.392220000000     0.129000000000    -0.0351499  
C136     C      0.401870000000     0.377640000000     0.147550000000    -0.0350424  
C137     C      0.373490000000     0.375670000000     0.145750000000    -0.00628057 
C138     C      0.360230000000     0.388610000000     0.124940000000    -0.0350401  
C139     C      0.375010000000     0.403190000000     0.106370000000    -0.0351925  
C140     C      0.357780000000     0.360030000000     0.165390000000     0.0496048  
C141     C      0.367360000000     0.334960000000     0.174870000000    -0.0917631  
C142     C      0.352170000000     0.320330000000     0.193060000000     0.0727305  
C143     C      0.318300000000     0.354810000000     0.192950000000     0.0726788  
C144     C      0.332970000000     0.369950000000     0.174740000000    -0.0917652  
Co1      Co     0.473420000000     0.015540000000     0.002080000000     0.840112   
Co2      Co     0.053590000000     0.015570000000     0.002090000000     0.840077   
Co3      Co     0.013530000000     0.474960000000     0.002150000000     0.836114   
Co4      Co     0.013490000000     0.056160000000     0.002170000000     0.836291   
Co5      Co     0.263510000000     0.306160000000     0.252110000000     0.837742   
Co6      Co     0.263500000000     0.224950000000     0.252160000000     0.838172   
Co7      Co     0.303590000000     0.265560000000     0.252180000000     0.841841   
Co8      Co     0.223420000000     0.265570000000     0.252270000000     0.841823   
H1       H      0.049100000000     0.113200000000     0.054810000000     0.0307658  
H2       H      0.074670000000     0.139140000000     0.086540000000     0.0527864  
H3       H      0.136690000000     0.076790000000     0.085720000000     0.052837   
H4       H      0.110450000000     0.051080000000     0.054370000000     0.0309538  
H5       H      0.116400000000     0.165440000000     0.090930000000     0.0380736  
H6       H      0.142130000000     0.191050000000     0.123230000000     0.0379718  
H7       H      0.160460000000     0.115680000000     0.163540000000     0.0380869  
H8       H      0.134730000000     0.090080000000     0.131230000000     0.0379579  
H9       H      0.140220000000     0.204340000000     0.168740000000     0.0529753  
H10      H      0.166500000000     0.230050000000     0.200070000000     0.031066   
H11      H      0.227820000000     0.167920000000     0.199590000000     0.0308837  
H12      H      0.202200000000     0.141980000000     0.167900000000     0.0528975  
H13      H      0.046100000000     0.110350000000     0.445140000000     0.031114   
H14      H      0.072390000000     0.137060000000     0.414510000000     0.0525846  
H15      H      0.134010000000     0.074310000000     0.414680000000     0.0526463  
H16      H      0.107080000000     0.047880000000     0.444920000000     0.0313197  
H17      H      0.114400000000     0.163340000000     0.413540000000     0.0382202  
H18      H      0.142270000000     0.190700000000     0.384290000000     0.0377485  
H19      H      0.162640000000     0.117840000000     0.340880000000     0.0382436  
H20      H      0.134770000000     0.090480000000     0.370120000000     0.0376723  
H21      H      0.143030000000     0.206880000000     0.339740000000     0.0526063  
H22      H      0.169970000000     0.233300000000     0.309490000000     0.0314377  
H23      H      0.230930000000     0.170810000000     0.309250000000     0.0312064  
H24      H      0.204650000000     0.144110000000     0.339900000000     0.0525586  
H25      H      0.227810000000     0.363200000000     0.199580000000     0.0309322  
H26      H      0.202190000000     0.389150000000     0.167890000000     0.0528962  
H27      H      0.140190000000     0.326780000000     0.168750000000     0.0529164  
H28      H      0.166480000000     0.301070000000     0.200070000000     0.0310893  
H29      H      0.160430000000     0.415440000000     0.163560000000     0.0381636  
H30      H      0.134720000000     0.441060000000     0.131250000000     0.03801    
H31      H      0.116400000000     0.365710000000     0.090930000000     0.0381113  
H32      H      0.142110000000     0.340090000000     0.123230000000     0.0379724  
H33      H      0.136680000000     0.454360000000     0.085750000000     0.0529088  
H34      H      0.110450000000     0.480070000000     0.054390000000     0.0310367  
H35      H      0.049110000000     0.417950000000     0.054800000000     0.0307453  
H36      H      0.074670000000     0.392010000000     0.086530000000     0.0528615  
H37      H      0.416680000000     0.050890000000     0.054560000000     0.0309976  
H38      H      0.390650000000     0.076370000000     0.086260000000     0.0530268  
H39      H      0.451930000000     0.139460000000     0.085970000000     0.0531154  
H40      H      0.477740000000     0.113280000000     0.054600000000     0.0309528  
H41      H      0.364250000000     0.118230000000     0.090680000000     0.0382978  
H42      H      0.338470000000     0.143700000000     0.123040000000     0.0382762  
H43      H      0.412740000000     0.162630000000     0.163800000000     0.0383166  
H44      H      0.438510000000     0.137150000000     0.131430000000     0.038323   
H45      H      0.325040000000     0.141460000000     0.168500000000     0.0530685  
H46      H      0.299230000000     0.167710000000     0.199830000000     0.0309936  
H47      H      0.360340000000     0.230060000000     0.199800000000     0.0310853  
H48      H      0.386350000000     0.204520000000     0.168150000000     0.0531339  
H49      H      0.420000000000     0.483280000000     0.444820000000     0.031438   
H50      H      0.393100000000     0.456870000000     0.414530000000     0.0529292  
H51      H      0.454760000000     0.394170000000     0.414310000000     0.0528635  
H52      H      0.481010000000     0.420850000000     0.445000000000     0.0312986  
H53      H      0.392340000000     0.440750000000     0.369960000000     0.0380311  
H54      H      0.364490000000     0.413390000000     0.340700000000     0.0385487  
H55      H      0.384930000000     0.340500000000     0.384030000000     0.0380486  
H56      H      0.412780000000     0.367850000000     0.413300000000     0.0385076  
H57      H      0.322500000000     0.387090000000     0.339700000000     0.052893   
H58      H      0.296190000000     0.360390000000     0.309080000000     0.0312864  
H59      H      0.357180000000     0.297910000000     0.309260000000     0.0314297  
H60      H      0.384140000000     0.324360000000     0.339470000000     0.0528783  
H61      H      0.420020000000     0.047680000000     0.444770000000     0.0312742  
H62      H      0.393260000000     0.073880000000     0.414180000000     0.0526818  
H63      H      0.454110000000     0.137360000000     0.415090000000     0.0528848  
H64      H      0.480680000000     0.110470000000     0.445330000000     0.0312897  
H65      H      0.366340000000     0.115650000000     0.413350000000     0.0384327  
H66      H      0.338750000000     0.143160000000     0.384000000000     0.0379849  
H67      H      0.410660000000     0.165610000000     0.341060000000     0.0384266  
H68      H      0.438260000000     0.138090000000     0.370410000000     0.0379474  
H69      H      0.322880000000     0.143860000000     0.339340000000     0.0527977  
H70      H      0.296320000000     0.170720000000     0.309070000000     0.0312889  
H71      H      0.356970000000     0.233520000000     0.309570000000     0.0313815  
H72      H      0.383740000000     0.207360000000     0.340190000000     0.0527021  
H73      H      0.170030000000     0.297870000000     0.309520000000     0.0314102  
H74      H      0.143140000000     0.324310000000     0.339790000000     0.0527264  
H75      H      0.204750000000     0.387060000000     0.339880000000     0.0527719  
H76      H      0.231000000000     0.360350000000     0.309210000000     0.0312608  
H77      H      0.142420000000     0.340480000000     0.384330000000     0.037751   
H78      H      0.114560000000     0.367840000000     0.413580000000     0.038317   
H79      H      0.134890000000     0.440700000000     0.370160000000     0.037772   
H80      H      0.162760000000     0.413340000000     0.340910000000     0.0383416  
H81      H      0.072530000000     0.394100000000     0.414520000000     0.0526876  
H82      H      0.046200000000     0.420790000000     0.445140000000     0.03118    
H83      H      0.107140000000     0.483310000000     0.444940000000     0.0314049  
H84      H      0.134110000000     0.456880000000     0.414720000000     0.0527374  
H85      H      0.477760000000     0.417690000000     0.054430000000     0.0309137  
H86      H      0.451920000000     0.391440000000     0.085740000000     0.0531199  
H87      H      0.390580000000     0.454470000000     0.086010000000     0.053164   
H88      H      0.416610000000     0.480020000000     0.054390000000     0.031109   
H89      H      0.438450000000     0.393720000000     0.131200000000     0.0383599  
H90      H      0.412670000000     0.368250000000     0.163560000000     0.038375   
H91      H      0.338420000000     0.387100000000     0.122740000000     0.0382807  
H92      H      0.364210000000     0.412580000000     0.090370000000     0.0383603  
H93      H      0.386290000000     0.326380000000     0.167950000000     0.0531506  
H94      H      0.360290000000     0.300910000000     0.199670000000     0.0311462  
H95      H      0.299180000000     0.363260000000     0.199590000000     0.0309624  
H96      H      0.324990000000     0.389440000000     0.168210000000     0.0531287  
N1       N      0.077770000000     0.080150000000     0.052260000000    -0.190612   
N2       N      0.199160000000     0.200970000000     0.202150000000    -0.190575   
N3       N      0.074700000000     0.077240000000     0.447540000000    -0.189651   
N4       N      0.202330000000     0.203920000000     0.306850000000    -0.18958    
N5       N      0.199150000000     0.330150000000     0.202150000000    -0.190689   
N6       N      0.077770000000     0.450990000000     0.052270000000    -0.190618   
N7       N      0.449210000000     0.080100000000     0.052260000000    -0.190616   
N8       N      0.327790000000     0.200880000000     0.202140000000    -0.190726   
N9       N      0.452380000000     0.453940000000     0.447430000000    -0.189596   
N10      N      0.324800000000     0.327280000000     0.306670000000    -0.189565   
N11      N      0.452230000000     0.077210000000     0.447570000000    -0.189596   
N12      N      0.324770000000     0.203980000000     0.306800000000    -0.189602   
N13      N      0.202400000000     0.327240000000     0.306850000000    -0.18957    
N14      N      0.074790000000     0.453920000000     0.447550000000    -0.18961    
N15      N      0.449190000000     0.450840000000     0.052090000000    -0.190606   
N16      N      0.327740000000     0.330100000000     0.201960000000    -0.190647   
O1       O      0.455210000000     0.488960000000     0.026740000000    -0.364375   
O2       O      0.071780000000     0.042100000000     0.026830000000    -0.364104   
O3       O      0.039950000000     0.456760000000     0.026900000000    -0.363773   
O4       O      0.487030000000     0.074360000000     0.026890000000    -0.363716   
O5       O      0.071780000000     0.489050000000     0.026830000000    -0.364081   
O6       O      0.455240000000     0.042040000000     0.026830000000    -0.364399   
O7       O      0.039940000000     0.074370000000     0.026900000000    -0.363888   
O8       O      0.487050000000     0.456680000000     0.026800000000    -0.363689   
O9       O      0.457340000000     0.040010000000     0.474300000000    -0.368425   
O10      O      0.069680000000     0.491110000000     0.474300000000    -0.368447   
O11      O      0.489150000000     0.458710000000     0.474390000000    -0.36763    
O12      O      0.037910000000     0.072440000000     0.474460000000    -0.367715   
O13      O      0.069640000000     0.040050000000     0.474290000000    -0.368429   
O14      O      0.457400000000     0.491080000000     0.474240000000    -0.368407   
O15      O      0.489040000000     0.072440000000     0.474480000000    -0.367418   
O16      O      0.037980000000     0.458700000000     0.474450000000    -0.367744   
O17      O      0.013510000000     0.015550000000     0.012820000000    -0.591196   
O18      O      0.289930000000     0.324350000000     0.227350000000    -0.36382    
O19      O      0.237030000000     0.206750000000     0.227470000000    -0.364027   
O20      O      0.321770000000     0.238990000000     0.227500000000    -0.364365   
O21      O      0.205200000000     0.292090000000     0.227560000000    -0.364353   
O22      O      0.289960000000     0.206700000000     0.227480000000    -0.363866   
O23      O      0.237020000000     0.324380000000     0.227430000000    -0.363737   
O24      O      0.205200000000     0.239030000000     0.227560000000    -0.364192   
O25      O      0.321750000000     0.292060000000     0.227420000000    -0.364216   
O26      O      0.239140000000     0.322440000000     0.279870000000    -0.36751    
O27      O      0.287960000000     0.208720000000     0.279880000000    -0.36762    
O28      O      0.319700000000     0.290070000000     0.279940000000    -0.368216   
O29      O      0.207380000000     0.241100000000     0.280090000000    -0.368422   
O30      O      0.239100000000     0.208700000000     0.279910000000    -0.367796   
O31      O      0.287970000000     0.322460000000     0.279790000000    -0.36745    
O32      O      0.207410000000     0.290040000000     0.280090000000    -0.368349   
O33      O      0.319660000000     0.241130000000     0.280020000000    -0.36845    
O34      O      0.263490000000     0.265550000000     0.241490000000    -0.591278   
C145     C      0.464170000000     0.465850000000     0.534700000000     0.400816   
C146     C      0.062800000000     0.065200000000     0.534820000000     0.400845   
C147     C      0.062810000000     0.465950000000     0.534820000000     0.400634   
C148     C      0.464180000000     0.065150000000     0.534810000000     0.40095    
C149     C      0.466700000000     0.062730000000     0.965760000000     0.394614   
C150     C      0.060320000000     0.468400000000     0.965740000000     0.394837   
C151     C      0.466810000000     0.468400000000     0.965660000000     0.394856   
C152     C      0.060260000000     0.062760000000     0.965740000000     0.39469    
C153     C      0.312780000000     0.315160000000     0.719420000000     0.400952   
C154     C      0.214160000000     0.215930000000     0.719580000000     0.400852   
C155     C      0.312820000000     0.215870000000     0.719550000000     0.401079   
C156     C      0.214140000000     0.315190000000     0.719560000000     0.400956   
C157     C      0.216810000000     0.312750000000     0.788630000000     0.394585   
C158     C      0.310300000000     0.218430000000     0.788600000000     0.394908   
C159     C      0.310330000000     0.312780000000     0.788490000000     0.394782   
C160     C      0.216770000000     0.218400000000     0.788650000000     0.394793   
C161     C      0.068310000000     0.104840000000     0.561310000000     0.0724656  
C162     C      0.082990000000     0.119990000000     0.579500000000    -0.0917722  
C163     C      0.107810000000     0.110090000000     0.588830000000     0.0493477  
C164     C      0.117410000000     0.085030000000     0.579320000000    -0.0917785  
C165     C      0.102230000000     0.070410000000     0.561120000000     0.0725162  
C166     C      0.123530000000     0.125710000000     0.608490000000    -0.00633151 
C167     C      0.125730000000     0.154360000000     0.606810000000    -0.0352544  
C168     C      0.140470000000     0.169040000000     0.625330000000    -0.0352385  
C169     C      0.153330000000     0.155410000000     0.645980000000    -0.0063499  
C170     C      0.151130000000     0.126760000000     0.647660000000    -0.0352529  
C171     C      0.136390000000     0.112090000000     0.629140000000    -0.035254   
C172     C      0.169070000000     0.171030000000     0.665620000000     0.0494255  
C173     C      0.159490000000     0.196110000000     0.675130000000    -0.0919319  
C174     C      0.174700000000     0.210720000000     0.693310000000     0.0726243  
C175     C      0.208610000000     0.176280000000     0.693100000000     0.0725016  
C176     C      0.193890000000     0.161120000000     0.674940000000    -0.0918364  
C177     C      0.065320000000     0.102020000000     0.938650000000     0.0715565  
C178     C      0.080430000000     0.117620000000     0.921090000000    -0.0914843  
C179     C      0.105530000000     0.108010000000     0.912170000000     0.0489904  
C180     C      0.114630000000     0.082450000000     0.920900000000    -0.0915215  
C181     C      0.099040000000     0.067400000000     0.938460000000     0.0716247  
C182     C      0.122310000000     0.124720000000     0.894150000000    -0.00626105 
C183     C      0.124620000000     0.153190000000     0.897600000000    -0.035193   
C184     C      0.140630000000     0.168880000000     0.880860000000    -0.0353917  
C185     C      0.154730000000     0.156470000000     0.860270000000    -0.0061879  
C186     C      0.152420000000     0.127990000000     0.856810000000    -0.0353111  
C187     C      0.136410000000     0.112300000000     0.873560000000    -0.0353507  
C188     C      0.171510000000     0.173170000000     0.842250000000     0.0488683  
C189     C      0.162420000000     0.198740000000     0.833520000000    -0.0913536  
C190     C      0.178000000000     0.213780000000     0.815940000000     0.0715467  
C191     C      0.211710000000     0.179150000000     0.815760000000     0.071637   
C192     C      0.196610000000     0.163560000000     0.833310000000    -0.0914324  
C193     C      0.208590000000     0.354840000000     0.693090000000     0.0725409  
C194     C      0.193870000000     0.370000000000     0.674920000000    -0.0917866  
C195     C      0.169050000000     0.360090000000     0.665620000000     0.049465   
C196     C      0.159470000000     0.335030000000     0.675130000000    -0.0917814  
C197     C      0.174680000000     0.320400000000     0.693310000000     0.0724796  
C198     C      0.153320000000     0.375720000000     0.645980000000    -0.00632925 
C199     C      0.151110000000     0.404370000000     0.647680000000    -0.0352781  
C200     C      0.136380000000     0.419050000000     0.629150000000    -0.0352086  
C201     C      0.123520000000     0.405430000000     0.608500000000    -0.00631733 
C202     C      0.125720000000     0.376780000000     0.606810000000    -0.035272   
C203     C      0.140440000000     0.362100000000     0.625330000000    -0.0351918  
C204     C      0.107810000000     0.421060000000     0.588840000000     0.0494456  
C205     C      0.117400000000     0.446130000000     0.579340000000    -0.0918197  
C206     C      0.102230000000     0.460740000000     0.561140000000     0.0725339  
C207     C      0.068320000000     0.426310000000     0.561310000000     0.0726503  
C208     C      0.083000000000     0.411150000000     0.579500000000    -0.0919024  
C209     C      0.424780000000     0.070330000000     0.561170000000     0.072638   
C210     C      0.409580000000     0.084960000000     0.579340000000    -0.0917584  
C211     C      0.419150000000     0.110050000000     0.588810000000     0.0495689  
C212     C      0.443950000000     0.119970000000     0.579460000000    -0.0917766  
C213     C      0.458630000000     0.104830000000     0.561250000000     0.0726254  
C214     C      0.403440000000     0.125670000000     0.608460000000    -0.0062421  
C215     C      0.375050000000     0.127630000000     0.606670000000    -0.0351245  
C216     C      0.360270000000     0.142220000000     0.625220000000    -0.0351406  
C217     C      0.373550000000     0.155190000000     0.646010000000    -0.00622824 
C218     C      0.401930000000     0.153220000000     0.647810000000    -0.035079   
C219     C      0.416710000000     0.138640000000     0.629260000000    -0.035152   
C220     C      0.357840000000     0.170850000000     0.665650000000     0.0495892  
C221     C      0.333030000000     0.160960000000     0.675010000000    -0.0917369  
C222     C      0.318350000000     0.176140000000     0.693180000000     0.0726279  
C223     C      0.352220000000     0.210610000000     0.693230000000     0.0728582  
C224     C      0.367420000000     0.195950000000     0.675080000000    -0.0918617  
C225     C      0.428050000000     0.463780000000     0.938340000000     0.0718257  
C226     C      0.412470000000     0.448740000000     0.920750000000    -0.0914903  
C227     C      0.421600000000     0.423190000000     0.911990000000     0.0491573  
C228     C      0.446700000000     0.413590000000     0.920930000000    -0.091434   
C229     C      0.461780000000     0.429180000000     0.938500000000     0.071792   
C230     C      0.404830000000     0.406500000000     0.893960000000    -0.006161   
C231     C      0.390720000000     0.418920000000     0.873370000000    -0.0351676  
C232     C      0.374720000000     0.403240000000     0.856610000000    -0.035206   
C233     C      0.372440000000     0.374750000000     0.860030000000    -0.00611933 
C234     C      0.386550000000     0.362330000000     0.880620000000    -0.0352059  
C235     C      0.402550000000     0.378010000000     0.897380000000    -0.0350986  
C236     C      0.355650000000     0.358050000000     0.842010000000     0.0491533  
C237     C      0.330540000000     0.367660000000     0.833100000000    -0.0915366  
C238     C      0.315430000000     0.352060000000     0.815570000000     0.0718243  
C239     C      0.349140000000     0.317440000000     0.815710000000     0.0718105  
C240     C      0.364750000000     0.332490000000     0.833270000000    -0.0914711  
C241     C      0.427930000000     0.067310000000     0.938460000000     0.0717228  
C242     C      0.412290000000     0.082360000000     0.920940000000    -0.091636   
C243     C      0.421330000000     0.107950000000     0.912230000000     0.0491311  
C244     C      0.446420000000     0.117600000000     0.921150000000    -0.0914435  
C245     C      0.461550000000     0.102030000000     0.938710000000     0.071708   
C246     C      0.404520000000     0.124630000000     0.894220000000    -0.00624734 
C247     C      0.376230000000     0.126250000000     0.897510000000    -0.0351711  
C248     C      0.360410000000     0.142050000000     0.880700000000    -0.0353491  
C249     C      0.372490000000     0.156620000000     0.860200000000    -0.00613592 
C250     C      0.400760000000     0.155010000000     0.856910000000    -0.0352463  
C251     C      0.416590000000     0.139210000000     0.873720000000    -0.0352514  
C252     C      0.355670000000     0.173280000000     0.842170000000     0.0490555  
C253     C      0.330580000000     0.163620000000     0.833260000000    -0.0913769  
C254     C      0.315450000000     0.179170000000     0.815690000000     0.0716499  
C255     C      0.349070000000     0.213890000000     0.815890000000     0.071701   
C256     C      0.364710000000     0.198860000000     0.833440000000    -0.0915695  
C257     C      0.178080000000     0.317390000000     0.815950000000     0.0716508  
C258     C      0.162510000000     0.332440000000     0.833540000000    -0.0914485  
C259     C      0.171620000000     0.358010000000     0.842260000000     0.0490051  
C260     C      0.196700000000     0.367620000000     0.833300000000    -0.0914248  
C261     C      0.211790000000     0.352020000000     0.815730000000     0.0716591  
C262     C      0.154850000000     0.374720000000     0.860300000000    -0.00612983 
C263     C      0.140780000000     0.362310000000     0.880900000000    -0.0352383  
C264     C      0.124770000000     0.377990000000     0.897650000000    -0.0352151  
C265     C      0.122450000000     0.406470000000     0.894190000000    -0.00618741 
C266     C      0.136540000000     0.418880000000     0.873590000000    -0.035246   
C267     C      0.152550000000     0.403200000000     0.856840000000    -0.0352717  
C268     C      0.105650000000     0.423170000000     0.912190000000     0.0490623  
C269     C      0.080560000000     0.413550000000     0.921120000000    -0.0914058  
C270     C      0.065430000000     0.429130000000     0.938660000000     0.071677   
C271     C      0.099120000000     0.463780000000     0.938490000000     0.0717087  
C272     C      0.114730000000     0.448730000000     0.920930000000    -0.0914468  
C273     C      0.458620000000     0.426120000000     0.561070000000     0.0728028  
C274     C      0.443930000000     0.410930000000     0.579220000000    -0.0918399  
C275     C      0.419110000000     0.420820000000     0.588560000000     0.0495913  
C276     C      0.409520000000     0.445910000000     0.579110000000    -0.0917762  
C277     C      0.424740000000     0.460580000000     0.560980000000     0.0727289  
C278     C      0.403390000000     0.405160000000     0.608190000000    -0.0061608  
C279     C      0.416650000000     0.392220000000     0.629000000000    -0.0351622  
C280     C      0.401870000000     0.377640000000     0.647550000000    -0.0350229  
C281     C      0.373490000000     0.375670000000     0.645750000000    -0.00628697 
C282     C      0.360230000000     0.388610000000     0.624940000000    -0.0350134  
C283     C      0.375010000000     0.403190000000     0.606370000000    -0.035185   
C284     C      0.357780000000     0.360030000000     0.665390000000     0.0496323  
C285     C      0.367360000000     0.334960000000     0.674870000000    -0.0917987  
C286     C      0.352170000000     0.320330000000     0.693060000000     0.0727584  
C287     C      0.318300000000     0.354810000000     0.692950000000     0.0726838  
C288     C      0.332970000000     0.369950000000     0.674740000000    -0.091772   
Co9      Co     0.473420000000     0.015540000000     0.502080000000     0.841139   
Co10     Co     0.053590000000     0.015570000000     0.502090000000     0.841029   
Co11     Co     0.013530000000     0.474960000000     0.502150000000     0.83706    
Co12     Co     0.013490000000     0.056160000000     0.502180000000     0.83719    
Co13     Co     0.263510000000     0.306160000000     0.752110000000     0.837731   
Co14     Co     0.263500000000     0.224950000000     0.752170000000     0.838122   
Co15     Co     0.303590000000     0.265560000000     0.752180000000     0.841778   
Co16     Co     0.223420000000     0.265570000000     0.752260000000     0.841971   
H97      H      0.049100000000     0.113200000000     0.554800000000     0.0308345  
H98      H      0.074670000000     0.139140000000     0.586540000000     0.0528175  
H99      H      0.136690000000     0.076790000000     0.585730000000     0.0528507  
H100     H      0.110450000000     0.051080000000     0.554370000000     0.0310044  
H101     H      0.116400000000     0.165440000000     0.590930000000     0.0381094  
H102     H      0.142130000000     0.191050000000     0.623230000000     0.038007   
H103     H      0.160460000000     0.115680000000     0.663540000000     0.0380792  
H104     H      0.134730000000     0.090080000000     0.631230000000     0.0379541  
H105     H      0.140220000000     0.204340000000     0.668740000000     0.0529828  
H106     H      0.166500000000     0.230050000000     0.700070000000     0.0310606  
H107     H      0.227820000000     0.167920000000     0.699600000000     0.0308959  
H108     H      0.202200000000     0.141980000000     0.667900000000     0.0529112  
H109     H      0.046100000000     0.110350000000     0.945140000000     0.0311863  
H110     H      0.072390000000     0.137060000000     0.914500000000     0.0526047  
H111     H      0.134010000000     0.074310000000     0.914680000000     0.0526906  
H112     H      0.107080000000     0.047880000000     0.944920000000     0.0313849  
H113     H      0.114400000000     0.163340000000     0.913540000000     0.0382948  
H114     H      0.142270000000     0.190700000000     0.884290000000     0.0377899  
H115     H      0.162640000000     0.117840000000     0.840880000000     0.0382412  
H116     H      0.134770000000     0.090480000000     0.870120000000     0.0376764  
H117     H      0.143030000000     0.206880000000     0.839740000000     0.0526182  
H118     H      0.169970000000     0.233300000000     0.809490000000     0.0314266  
H119     H      0.230930000000     0.170810000000     0.809250000000     0.0311957  
H120     H      0.204650000000     0.144110000000     0.839900000000     0.0525778  
H121     H      0.227810000000     0.363200000000     0.699580000000     0.0309336  
H122     H      0.202190000000     0.389150000000     0.667890000000     0.0529082  
H123     H      0.140190000000     0.326780000000     0.668750000000     0.0529212  
H124     H      0.166480000000     0.301070000000     0.700070000000     0.0310842  
H125     H      0.160430000000     0.415440000000     0.663560000000     0.0381616  
H126     H      0.134720000000     0.441060000000     0.631250000000     0.0380095  
H127     H      0.116400000000     0.365710000000     0.590930000000     0.0381491  
H128     H      0.142110000000     0.340090000000     0.623230000000     0.0380095  
H129     H      0.136680000000     0.454360000000     0.585750000000     0.0529495  
H130     H      0.110450000000     0.480070000000     0.554390000000     0.031095   
H131     H      0.049110000000     0.417950000000     0.554800000000     0.030802   
H132     H      0.074670000000     0.392010000000     0.586530000000     0.0528927  
H133     H      0.416680000000     0.050890000000     0.554560000000     0.0310552  
H134     H      0.390650000000     0.076370000000     0.586260000000     0.0530554  
H135     H      0.451930000000     0.139460000000     0.585970000000     0.0531647  
H136     H      0.477740000000     0.113280000000     0.554600000000     0.0310189  
H137     H      0.364250000000     0.118230000000     0.590680000000     0.038332   
H138     H      0.338470000000     0.143700000000     0.623040000000     0.0383185  
H139     H      0.412740000000     0.162630000000     0.663800000000     0.0383147  
H140     H      0.438510000000     0.137150000000     0.631430000000     0.0383196  
H141     H      0.325040000000     0.141460000000     0.668510000000     0.0531003  
H142     H      0.299230000000     0.167710000000     0.699830000000     0.0309868  
H143     H      0.360340000000     0.230060000000     0.699800000000     0.0310859  
H144     H      0.386350000000     0.204520000000     0.668150000000     0.0531563  
H145     H      0.420000000000     0.483280000000     0.944820000000     0.0315078  
H146     H      0.393100000000     0.456870000000     0.914530000000     0.0529777  
H147     H      0.454760000000     0.394170000000     0.914310000000     0.0529014  
H148     H      0.481010000000     0.420850000000     0.945000000000     0.0313617  
H149     H      0.392340000000     0.440750000000     0.869960000000     0.0380326  
H150     H      0.364490000000     0.413390000000     0.840700000000     0.0385445  
H151     H      0.384930000000     0.340500000000     0.884030000000     0.0380897  
H152     H      0.412780000000     0.367850000000     0.913300000000     0.0385773  
H153     H      0.322500000000     0.387090000000     0.839700000000     0.0529189  
H154     H      0.296190000000     0.360390000000     0.809090000000     0.0312796  
H155     H      0.357180000000     0.297910000000     0.809260000000     0.0314254  
H156     H      0.384140000000     0.324360000000     0.839470000000     0.0528903  
H157     H      0.420020000000     0.047680000000     0.944770000000     0.0313445  
H158     H      0.393260000000     0.073880000000     0.914180000000     0.0527188  
H159     H      0.454110000000     0.137360000000     0.915090000000     0.0529315  
H160     H      0.480680000000     0.110470000000     0.945330000000     0.0313631  
H161     H      0.366340000000     0.115650000000     0.913360000000     0.0384792  
H162     H      0.338750000000     0.143160000000     0.884000000000     0.038036   
H163     H      0.410660000000     0.165610000000     0.841060000000     0.0384296  
H164     H      0.438260000000     0.138090000000     0.870410000000     0.0379464  
H165     H      0.322880000000     0.143860000000     0.839340000000     0.0528137  
H166     H      0.296320000000     0.170720000000     0.809070000000     0.0312913  
H167     H      0.356970000000     0.233520000000     0.809570000000     0.0313741  
H168     H      0.383740000000     0.207360000000     0.840180000000     0.0527349  
H169     H      0.170030000000     0.297870000000     0.809520000000     0.0314117  
H170     H      0.143140000000     0.324310000000     0.839790000000     0.0527331  
H171     H      0.204750000000     0.387060000000     0.839880000000     0.0527871  
H172     H      0.231000000000     0.360350000000     0.809210000000     0.0312656  
H173     H      0.142420000000     0.340480000000     0.884330000000     0.0377972  
H174     H      0.114560000000     0.367840000000     0.913580000000     0.0383877  
H175     H      0.134890000000     0.440700000000     0.870160000000     0.0377728  
H176     H      0.162760000000     0.413340000000     0.840910000000     0.038345   
H177     H      0.072530000000     0.394100000000     0.914520000000     0.0527239  
H178     H      0.046200000000     0.420790000000     0.945140000000     0.0312451  
H179     H      0.107140000000     0.483310000000     0.944940000000     0.0314698  
H180     H      0.134110000000     0.456880000000     0.914720000000     0.0527839  
H181     H      0.477760000000     0.417690000000     0.554430000000     0.0309632  
H182     H      0.451920000000     0.391440000000     0.585740000000     0.0531465  
H183     H      0.390580000000     0.454470000000     0.586020000000     0.0531774  
H184     H      0.416610000000     0.480020000000     0.554390000000     0.0311667  
H185     H      0.438450000000     0.393720000000     0.631190000000     0.0383631  
H186     H      0.412670000000     0.368250000000     0.663560000000     0.0383691  
H187     H      0.338420000000     0.387100000000     0.622740000000     0.0383144  
H188     H      0.364210000000     0.412580000000     0.590370000000     0.0384281  
H189     H      0.386290000000     0.326380000000     0.667960000000     0.0531828  
H190     H      0.360290000000     0.300910000000     0.699660000000     0.0311362  
H191     H      0.299180000000     0.363260000000     0.699600000000     0.0309732  
H192     H      0.324990000000     0.389440000000     0.668210000000     0.053137   
N17      N      0.077770000000     0.080150000000     0.552260000000    -0.19067    
N18      N      0.199160000000     0.200970000000     0.702150000000    -0.19057    
N19      N      0.074700000000     0.077240000000     0.947540000000    -0.189606   
N20      N      0.202330000000     0.203920000000     0.806860000000    -0.189583   
N21      N      0.199150000000     0.330150000000     0.702150000000    -0.190687   
N22      N      0.077770000000     0.450990000000     0.552270000000    -0.190613   
N23      N      0.449210000000     0.080100000000     0.552260000000    -0.190609   
N24      N      0.327790000000     0.200880000000     0.702140000000    -0.190728   
N25      N      0.452380000000     0.453940000000     0.947430000000    -0.189558   
N26      N      0.324800000000     0.327280000000     0.806660000000    -0.189624   
N27      N      0.452230000000     0.077210000000     0.947570000000    -0.189505   
N28      N      0.324770000000     0.203980000000     0.806800000000    -0.189651   
N29      N      0.202400000000     0.327240000000     0.806850000000    -0.189565   
N30      N      0.074790000000     0.453920000000     0.947550000000    -0.189563   
N31      N      0.449190000000     0.450840000000     0.552090000000    -0.190652   
N32      N      0.327740000000     0.330100000000     0.701960000000    -0.190657   
O35      O      0.455210000000     0.488960000000     0.526740000000    -0.364295   
O36      O      0.071780000000     0.042100000000     0.526830000000    -0.364064   
O37      O      0.039950000000     0.456760000000     0.526900000000    -0.363768   
O38      O      0.487030000000     0.074360000000     0.526890000000    -0.363772   
O39      O      0.071780000000     0.489050000000     0.526830000000    -0.364077   
O40      O      0.455240000000     0.042040000000     0.526830000000    -0.364409   
O41      O      0.039940000000     0.074370000000     0.526910000000    -0.363883   
O42      O      0.487050000000     0.456680000000     0.526800000000    -0.363611   
O43      O      0.457340000000     0.040010000000     0.974300000000    -0.368008   
O44      O      0.069680000000     0.491110000000     0.974300000000    -0.367956   
O45      O      0.489150000000     0.458710000000     0.974390000000    -0.367167   
O46      O      0.037910000000     0.072440000000     0.974460000000    -0.367284   
O47      O      0.069640000000     0.040050000000     0.974290000000    -0.36795    
O48      O      0.457400000000     0.491080000000     0.974230000000    -0.367908   
O49      O      0.489040000000     0.072440000000     0.974480000000    -0.367074   
O50      O      0.037980000000     0.458700000000     0.974450000000    -0.367251   
O51      O      0.013510000000     0.015550000000     0.512820000000    -0.591536   
O52      O      0.289930000000     0.324350000000     0.727350000000    -0.363847   
O53      O      0.237030000000     0.206750000000     0.727470000000    -0.363942   
O54      O      0.321770000000     0.238990000000     0.727500000000    -0.36434    
O55      O      0.205200000000     0.292090000000     0.727570000000    -0.364439   
O56      O      0.289960000000     0.206700000000     0.727480000000    -0.363788   
O57      O      0.237020000000     0.324380000000     0.727430000000    -0.363727   
O58      O      0.205200000000     0.239030000000     0.727570000000    -0.364264   
O59      O      0.321750000000     0.292060000000     0.727410000000    -0.364211   
O60      O      0.239140000000     0.322440000000     0.779870000000    -0.367498   
O61      O      0.287960000000     0.208720000000     0.779880000000    -0.367619   
O62      O      0.319700000000     0.290070000000     0.779940000000    -0.368256   
O63      O      0.207380000000     0.241100000000     0.780090000000    -0.368266   
O64      O      0.239100000000     0.208700000000     0.779910000000    -0.367761   
O65      O      0.287970000000     0.322460000000     0.779790000000    -0.367475   
O66      O      0.207410000000     0.290040000000     0.780090000000    -0.368285   
O67      O      0.319660000000     0.241130000000     0.780020000000    -0.368382   
O68      O      0.263490000000     0.265550000000     0.741490000000    -0.59128    
C289     C      0.464170000000     0.965850000000     0.034690000000     0.400832   
C290     C      0.062800000000     0.565200000000     0.034810000000     0.400629   
C291     C      0.062810000000     0.965950000000     0.034820000000     0.400596   
C292     C      0.464180000000     0.565150000000     0.034810000000     0.400831   
C293     C      0.466700000000     0.562730000000     0.465750000000     0.394662   
C294     C      0.060320000000     0.968400000000     0.465740000000     0.394906   
C295     C      0.466810000000     0.968400000000     0.465660000000     0.394851   
C296     C      0.060260000000     0.562760000000     0.465740000000     0.394774   
C297     C      0.312780000000     0.815160000000     0.219420000000     0.400894   
C298     C      0.214160000000     0.715930000000     0.219580000000     0.400649   
C299     C      0.312820000000     0.715870000000     0.219550000000     0.401067   
C300     C      0.214140000000     0.815190000000     0.219560000000     0.401136   
C301     C      0.216810000000     0.812750000000     0.288630000000     0.394831   
C302     C      0.310300000000     0.718430000000     0.288590000000     0.394788   
C303     C      0.310330000000     0.812780000000     0.288490000000     0.394686   
C304     C      0.216770000000     0.718400000000     0.288640000000     0.395016   
C305     C      0.068310000000     0.604840000000     0.061310000000     0.0724175  
C306     C      0.082990000000     0.619990000000     0.079500000000    -0.0917851  
C307     C      0.107810000000     0.610090000000     0.088830000000     0.0493548  
C308     C      0.117410000000     0.585030000000     0.079330000000    -0.0918012  
C309     C      0.102230000000     0.570410000000     0.061120000000     0.0724583  
C310     C      0.123530000000     0.625710000000     0.108490000000    -0.00630969 
C311     C      0.125730000000     0.654360000000     0.106800000000    -0.0353232  
C312     C      0.140470000000     0.669040000000     0.125330000000    -0.0352502  
C313     C      0.153330000000     0.655410000000     0.145970000000    -0.00631863 
C314     C      0.151130000000     0.626760000000     0.147660000000    -0.0352936  
C315     C      0.136390000000     0.612090000000     0.129130000000    -0.0352334  
C316     C      0.169070000000     0.671040000000     0.165620000000     0.0494471  
C317     C      0.159490000000     0.696100000000     0.175130000000    -0.0919186  
C318     C      0.174700000000     0.710720000000     0.193310000000     0.0725854  
C319     C      0.208610000000     0.676280000000     0.193100000000     0.0725023  
C320     C      0.193890000000     0.661120000000     0.174940000000    -0.0918378  
C321     C      0.065320000000     0.602020000000     0.438650000000     0.0715349  
C322     C      0.080430000000     0.617620000000     0.421090000000    -0.0915323  
C323     C      0.105530000000     0.608010000000     0.412170000000     0.0489945  
C324     C      0.114630000000     0.582450000000     0.420900000000    -0.0915312  
C325     C      0.099040000000     0.567400000000     0.438460000000     0.0716139  
C326     C      0.122310000000     0.624720000000     0.394150000000    -0.00627568 
C327     C      0.124620000000     0.653190000000     0.397600000000    -0.0352045  
C328     C      0.140630000000     0.668880000000     0.380860000000    -0.0354141  
C329     C      0.154730000000     0.656470000000     0.360270000000    -0.00618347 
C330     C      0.152420000000     0.627990000000     0.356810000000    -0.0353087  
C331     C      0.136410000000     0.612300000000     0.373560000000    -0.035339   
C332     C      0.171510000000     0.673170000000     0.342250000000     0.0488494  
C333     C      0.162420000000     0.698740000000     0.333520000000    -0.0913672  
C334     C      0.178000000000     0.713780000000     0.315940000000     0.0715738  
C335     C      0.211710000000     0.679150000000     0.315760000000     0.071532   
C336     C      0.196610000000     0.663560000000     0.333310000000    -0.0913888  
C337     C      0.208590000000     0.854840000000     0.193090000000     0.0725593  
C338     C      0.193870000000     0.870000000000     0.174920000000    -0.0918068  
C339     C      0.169050000000     0.860090000000     0.165620000000     0.049498   
C340     C      0.159470000000     0.835030000000     0.175130000000    -0.0918565  
C341     C      0.174680000000     0.820410000000     0.193310000000     0.0725746  
C342     C      0.153320000000     0.875720000000     0.145980000000    -0.00634681 
C343     C      0.151110000000     0.904370000000     0.147680000000    -0.0352582  
C344     C      0.136380000000     0.919050000000     0.129150000000    -0.035201   
C345     C      0.123520000000     0.905430000000     0.108490000000    -0.00631629 
C346     C      0.125720000000     0.876780000000     0.106800000000    -0.0353354  
C347     C      0.140440000000     0.862100000000     0.125330000000    -0.0351834  
C348     C      0.107810000000     0.921060000000     0.088840000000     0.0494394  
C349     C      0.117400000000     0.946130000000     0.079340000000    -0.091839   
C350     C      0.102230000000     0.960740000000     0.061140000000     0.0725786  
C351     C      0.068320000000     0.926310000000     0.061310000000     0.0725466  
C352     C      0.083000000000     0.911150000000     0.079500000000    -0.0918834  
C353     C      0.424780000000     0.570330000000     0.061170000000     0.0726218  
C354     C      0.409580000000     0.584960000000     0.079340000000    -0.0917656  
C355     C      0.419150000000     0.610050000000     0.088800000000     0.0495626  
C356     C      0.443950000000     0.619970000000     0.079450000000    -0.091801   
C357     C      0.458630000000     0.604830000000     0.061250000000     0.0726197  
C358     C      0.403440000000     0.625670000000     0.108460000000    -0.00620905 
C359     C      0.375050000000     0.627630000000     0.106660000000    -0.0351982  
C360     C      0.360270000000     0.642220000000     0.125220000000    -0.0351233  
C361     C      0.373550000000     0.655190000000     0.146010000000    -0.00623384 
C362     C      0.401930000000     0.653220000000     0.147810000000    -0.0350644  
C363     C      0.416710000000     0.638640000000     0.129260000000    -0.0351641  
C364     C      0.357840000000     0.670850000000     0.165640000000     0.0495387  
C365     C      0.333030000000     0.660960000000     0.175010000000    -0.0916712  
C366     C      0.318350000000     0.676140000000     0.193180000000     0.0726096  
C367     C      0.352220000000     0.710610000000     0.193230000000     0.0728412  
C368     C      0.367420000000     0.695950000000     0.175080000000    -0.0918285  
C369     C      0.428050000000     0.963780000000     0.438340000000     0.0717963  
C370     C      0.412470000000     0.948740000000     0.420750000000    -0.0914692  
C371     C      0.421600000000     0.923190000000     0.411990000000     0.04911    
C372     C      0.446700000000     0.913600000000     0.420930000000    -0.0913883  
C373     C      0.461780000000     0.929180000000     0.438500000000     0.0717569  
C374     C      0.404830000000     0.906500000000     0.393950000000    -0.00612841 
C375     C      0.390720000000     0.918920000000     0.373370000000    -0.0351743  
C376     C      0.374720000000     0.903240000000     0.356610000000    -0.0352013  
C377     C      0.372440000000     0.874750000000     0.360040000000    -0.00610475 
C378     C      0.386550000000     0.862330000000     0.380620000000    -0.0352135  
C379     C      0.402550000000     0.878010000000     0.397380000000    -0.0351582  
C380     C      0.355650000000     0.858050000000     0.342020000000     0.0491113  
C381     C      0.330540000000     0.867660000000     0.333100000000    -0.0915063  
C382     C      0.315430000000     0.852060000000     0.315570000000     0.0718199  
C383     C      0.349140000000     0.817440000000     0.315720000000     0.0718011  
C384     C      0.364750000000     0.832490000000     0.333270000000    -0.0914611  
C385     C      0.427930000000     0.567310000000     0.438460000000     0.0717637  
C386     C      0.412290000000     0.582360000000     0.420940000000    -0.0916415  
C387     C      0.421330000000     0.607950000000     0.412230000000     0.0490731  
C388     C      0.446420000000     0.617600000000     0.421150000000    -0.0913477  
C389     C      0.461550000000     0.602030000000     0.438710000000     0.0715736  
C390     C      0.404520000000     0.624630000000     0.394220000000    -0.00621418 
C391     C      0.376230000000     0.626250000000     0.397510000000    -0.03524    
C392     C      0.360410000000     0.642050000000     0.380700000000    -0.0353284  
C393     C      0.372490000000     0.656620000000     0.360190000000    -0.00615748 
C394     C      0.400760000000     0.655010000000     0.356910000000    -0.0352274  
C395     C      0.416590000000     0.639210000000     0.373720000000    -0.0352692  
C396     C      0.355670000000     0.673280000000     0.342170000000     0.0490019  
C397     C      0.330580000000     0.663630000000     0.333260000000    -0.0912462  
C398     C      0.315450000000     0.679170000000     0.315680000000     0.0715428  
C399     C      0.349070000000     0.713890000000     0.315890000000     0.0717557  
C400     C      0.364710000000     0.698870000000     0.333440000000    -0.0915838  
C401     C      0.178080000000     0.817390000000     0.315950000000     0.0716487  
C402     C      0.162510000000     0.832440000000     0.333540000000    -0.0914282  
C403     C      0.171620000000     0.858010000000     0.342260000000     0.0490109  
C404     C      0.196700000000     0.867620000000     0.333300000000    -0.0914324  
C405     C      0.211790000000     0.852020000000     0.315730000000     0.0716683  
C406     C      0.154850000000     0.874720000000     0.360290000000    -0.0061577  
C407     C      0.140780000000     0.862310000000     0.380900000000    -0.0352409  
C408     C      0.124770000000     0.877990000000     0.397650000000    -0.0352389  
C409     C      0.122450000000     0.906470000000     0.394190000000    -0.00618864 
C410     C      0.136540000000     0.918880000000     0.373590000000    -0.0352459  
C411     C      0.152550000000     0.903200000000     0.356840000000    -0.0352472  
C412     C      0.105650000000     0.923170000000     0.412190000000     0.0490496  
C413     C      0.080560000000     0.913550000000     0.421120000000    -0.0914224  
C414     C      0.065430000000     0.929130000000     0.438660000000     0.0716489  
C415     C      0.099120000000     0.963780000000     0.438490000000     0.0716936  
C416     C      0.114730000000     0.948730000000     0.420930000000    -0.0914455  
C417     C      0.458620000000     0.926120000000     0.061070000000     0.0726642  
C418     C      0.443930000000     0.910940000000     0.079230000000    -0.0917857  
C419     C      0.419110000000     0.920820000000     0.088560000000     0.0496018  
C420     C      0.409520000000     0.945910000000     0.079110000000    -0.0918198  
C421     C      0.424740000000     0.960580000000     0.060980000000     0.0727689  
C422     C      0.403390000000     0.905160000000     0.108190000000    -0.00617118 
C423     C      0.416650000000     0.892220000000     0.129000000000    -0.0351406  
C424     C      0.401870000000     0.877640000000     0.147550000000    -0.0350358  
C425     C      0.373490000000     0.875670000000     0.145750000000    -0.00626062 
C426     C      0.360230000000     0.888600000000     0.124940000000    -0.035035   
C427     C      0.375010000000     0.903190000000     0.106370000000    -0.0351883  
C428     C      0.357780000000     0.860040000000     0.165390000000     0.0495814  
C429     C      0.367360000000     0.834960000000     0.174870000000    -0.0917242  
C430     C      0.352170000000     0.820330000000     0.193060000000     0.0727199  
C431     C      0.318300000000     0.854810000000     0.192950000000     0.0726856  
C432     C      0.332970000000     0.869950000000     0.174740000000    -0.0917506  
Co17     Co     0.473420000000     0.515530000000     0.002080000000     0.840861   
Co18     Co     0.053590000000     0.515570000000     0.002090000000     0.840804   
Co19     Co     0.013530000000     0.974960000000     0.002150000000     0.836843   
Co20     Co     0.013490000000     0.556160000000     0.002170000000     0.836339   
Co21     Co     0.263510000000     0.806160000000     0.252110000000     0.837843   
Co22     Co     0.263500000000     0.724960000000     0.252160000000     0.837986   
Co23     Co     0.303590000000     0.765560000000     0.252180000000     0.841835   
Co24     Co     0.223420000000     0.765570000000     0.252270000000     0.841815   
H193     H      0.049100000000     0.613200000000     0.054810000000     0.0307782  
H194     H      0.074670000000     0.639140000000     0.086540000000     0.0527905  
H195     H      0.136690000000     0.576790000000     0.085720000000     0.0528905  
H196     H      0.110450000000     0.551090000000     0.054370000000     0.0310369  
H197     H      0.116400000000     0.665440000000     0.090930000000     0.0380733  
H198     H      0.142130000000     0.691050000000     0.123230000000     0.0379703  
H199     H      0.160460000000     0.615690000000     0.163540000000     0.0381404  
H200     H      0.134730000000     0.590080000000     0.131230000000     0.0380093  
H201     H      0.140220000000     0.704340000000     0.168740000000     0.0529623  
H202     H      0.166500000000     0.730050000000     0.200070000000     0.031074   
H203     H      0.227820000000     0.667920000000     0.199590000000     0.0309036  
H204     H      0.202200000000     0.641980000000     0.167900000000     0.0529244  
H205     H      0.046100000000     0.610350000000     0.445140000000     0.031118   
H206     H      0.072390000000     0.637060000000     0.414510000000     0.0525899  
H207     H      0.134010000000     0.574310000000     0.414680000000     0.0527031  
H208     H      0.107080000000     0.547880000000     0.444920000000     0.0314178  
H209     H      0.114400000000     0.663340000000     0.413540000000     0.0382208  
H210     H      0.142270000000     0.690700000000     0.384290000000     0.0377479  
H211     H      0.162640000000     0.617840000000     0.340880000000     0.0382787  
H212     H      0.134770000000     0.590480000000     0.370120000000     0.0377263  
H213     H      0.143030000000     0.706880000000     0.339740000000     0.0526135  
H214     H      0.169970000000     0.733300000000     0.309490000000     0.0314243  
H215     H      0.230930000000     0.670810000000     0.309250000000     0.0312427  
H216     H      0.204650000000     0.644110000000     0.339900000000     0.0525758  
H217     H      0.227810000000     0.863200000000     0.199580000000     0.0309356  
H218     H      0.202190000000     0.889150000000     0.167890000000     0.0529285  
H219     H      0.140190000000     0.826780000000     0.168750000000     0.0529373  
H220     H      0.166480000000     0.801070000000     0.200070000000     0.0310778  
H221     H      0.160430000000     0.915440000000     0.163560000000     0.0382014  
H222     H      0.134720000000     0.941060000000     0.131250000000     0.0380706  
H223     H      0.116400000000     0.865710000000     0.090930000000     0.0381125  
H224     H      0.142110000000     0.840090000000     0.123230000000     0.0379698  
H225     H      0.136680000000     0.954360000000     0.085750000000     0.0529734  
H226     H      0.110450000000     0.980070000000     0.054390000000     0.0311224  
H227     H      0.049110000000     0.917950000000     0.054800000000     0.03077    
H228     H      0.074670000000     0.892010000000     0.086530000000     0.0528596  
H229     H      0.416680000000     0.550890000000     0.054560000000     0.0310863  
H230     H      0.390650000000     0.576370000000     0.086260000000     0.0530848  
H231     H      0.451930000000     0.639460000000     0.085970000000     0.0531174  
H232     H      0.477740000000     0.613280000000     0.054600000000     0.0309563  
H233     H      0.364250000000     0.618230000000     0.090680000000     0.0383228  
H234     H      0.338470000000     0.643710000000     0.123040000000     0.0382912  
H235     H      0.412740000000     0.662630000000     0.163800000000     0.0383273  
H236     H      0.438510000000     0.637150000000     0.131430000000     0.0383411  
H237     H      0.325040000000     0.641460000000     0.168500000000     0.0530978  
H238     H      0.299230000000     0.667710000000     0.199830000000     0.0310101  
H239     H      0.360340000000     0.730060000000     0.199800000000     0.0310853  
H240     H      0.386350000000     0.704520000000     0.168150000000     0.0531338  
H241     H      0.420000000000     0.983280000000     0.444820000000     0.0315425  
H242     H      0.393100000000     0.956870000000     0.414530000000     0.0529861  
H243     H      0.454760000000     0.894170000000     0.414310000000     0.0528262  
H244     H      0.481010000000     0.920850000000     0.445000000000     0.0313022  
H245     H      0.392340000000     0.940750000000     0.369960000000     0.0380913  
H246     H      0.364490000000     0.913390000000     0.340700000000     0.038585   
H247     H      0.384930000000     0.840500000000     0.384030000000     0.0380442  
H248     H      0.412780000000     0.867860000000     0.413300000000     0.0385237  
H249     H      0.322500000000     0.887090000000     0.339700000000     0.0529197  
H250     H      0.296190000000     0.860390000000     0.309080000000     0.0313001  
H251     H      0.357180000000     0.797920000000     0.309260000000     0.031423   
H252     H      0.384140000000     0.824360000000     0.339470000000     0.0528807  
H253     H      0.420020000000     0.547680000000     0.444770000000     0.0313629  
H254     H      0.393260000000     0.573880000000     0.414180000000     0.0527446  
H255     H      0.454110000000     0.637370000000     0.415090000000     0.0528314  
H256     H      0.480680000000     0.610470000000     0.445330000000     0.0313246  
H257     H      0.366340000000     0.615650000000     0.413350000000     0.0384604  
H258     H      0.338750000000     0.643160000000     0.384000000000     0.0380027  
H259     H      0.410660000000     0.665610000000     0.341060000000     0.0384363  
H260     H      0.438260000000     0.638090000000     0.370410000000     0.0379678  
H261     H      0.322880000000     0.643860000000     0.339340000000     0.0527728  
H262     H      0.296320000000     0.670720000000     0.309070000000     0.0313303  
H263     H      0.356970000000     0.733520000000     0.309570000000     0.0313679  
H264     H      0.383740000000     0.707360000000     0.340190000000     0.0527263  
H265     H      0.170030000000     0.797870000000     0.309520000000     0.0314105  
H266     H      0.143140000000     0.824300000000     0.339790000000     0.0527082  
H267     H      0.204750000000     0.887060000000     0.339880000000     0.0527981  
H268     H      0.231000000000     0.860350000000     0.309210000000     0.0312702  
H269     H      0.142420000000     0.840480000000     0.384330000000     0.037751   
H270     H      0.114560000000     0.867840000000     0.413580000000     0.0383174  
H271     H      0.134890000000     0.940700000000     0.370160000000     0.0378302  
H272     H      0.162760000000     0.913340000000     0.340910000000     0.03838    
H273     H      0.072530000000     0.894100000000     0.414520000000     0.0526935  
H274     H      0.046200000000     0.920790000000     0.445140000000     0.0311832  
H275     H      0.107140000000     0.983310000000     0.444940000000     0.0315097  
H276     H      0.134110000000     0.956880000000     0.414720000000     0.0527982  
H277     H      0.477760000000     0.917690000000     0.054430000000     0.030938   
H278     H      0.451920000000     0.891440000000     0.085740000000     0.0530733  
H279     H      0.390580000000     0.954470000000     0.086010000000     0.0532307  
H280     H      0.416610000000     0.980020000000     0.054390000000     0.0311963  
H281     H      0.438450000000     0.893720000000     0.131200000000     0.0383812  
H282     H      0.412670000000     0.868250000000     0.163560000000     0.0383886  
H283     H      0.338420000000     0.887100000000     0.122740000000     0.0383013  
H284     H      0.364210000000     0.912580000000     0.090370000000     0.0383881  
H285     H      0.386290000000     0.826380000000     0.167950000000     0.0531413  
H286     H      0.360290000000     0.800910000000     0.199670000000     0.0311494  
H287     H      0.299180000000     0.863260000000     0.199590000000     0.0309775  
H288     H      0.324990000000     0.889440000000     0.168210000000     0.0531564  
N33      N      0.077770000000     0.580150000000     0.052260000000    -0.190571   
N34      N      0.199160000000     0.700970000000     0.202150000000    -0.190523   
N35      N      0.074700000000     0.577240000000     0.447540000000    -0.189641   
N36      N      0.202330000000     0.703930000000     0.306850000000    -0.189609   
N37      N      0.199150000000     0.830150000000     0.202150000000    -0.190747   
N38      N      0.077770000000     0.951000000000     0.052270000000    -0.190636   
N39      N      0.449210000000     0.580100000000     0.052260000000    -0.190606   
N40      N      0.327790000000     0.700880000000     0.202140000000    -0.190719   
N41      N      0.452380000000     0.953940000000     0.447430000000    -0.189572   
N42      N      0.324800000000     0.827280000000     0.306670000000    -0.189562   
N43      N      0.452230000000     0.577200000000     0.447570000000    -0.189612   
N44      N      0.324770000000     0.703990000000     0.306800000000    -0.189594   
N45      N      0.202400000000     0.827240000000     0.306850000000    -0.189609   
N46      N      0.074790000000     0.953920000000     0.447550000000    -0.189591   
N47      N      0.449190000000     0.950850000000     0.052090000000    -0.19062    
N48      N      0.327740000000     0.830100000000     0.201960000000    -0.190644   
O69      O      0.455210000000     0.988960000000     0.026740000000    -0.364011   
O70      O      0.071780000000     0.542100000000     0.026830000000    -0.364043   
O71      O      0.039950000000     0.956760000000     0.026900000000    -0.363802   
O72      O      0.487030000000     0.574360000000     0.026890000000    -0.363714   
O73      O      0.071780000000     0.989050000000     0.026830000000    -0.363784   
O74      O      0.455240000000     0.542040000000     0.026830000000    -0.364303   
O75      O      0.039940000000     0.574380000000     0.026900000000    -0.363774   
O76      O      0.487050000000     0.956680000000     0.026800000000    -0.363703   
O77      O      0.457340000000     0.540010000000     0.474300000000    -0.368327   
O78      O      0.069680000000     0.991110000000     0.474300000000    -0.368133   
O79      O      0.489150000000     0.958710000000     0.474390000000    -0.367632   
O80      O      0.037910000000     0.572440000000     0.474460000000    -0.367721   
O81      O      0.069640000000     0.540050000000     0.474290000000    -0.368378   
O82      O      0.457400000000     0.991080000000     0.474240000000    -0.368031   
O83      O      0.489040000000     0.572440000000     0.474480000000    -0.36743    
O84      O      0.037980000000     0.958700000000     0.474450000000    -0.367759   
O85      O      0.013510000000     0.515560000000     0.012820000000    -0.591065   
O86      O      0.289930000000     0.824350000000     0.227350000000    -0.363821   
O87      O      0.237030000000     0.706750000000     0.227470000000    -0.363884   
O88      O      0.321770000000     0.738990000000     0.227500000000    -0.364359   
O89      O      0.205200000000     0.792090000000     0.227560000000    -0.364364   
O90      O      0.289960000000     0.706700000000     0.227480000000    -0.363788   
O91      O      0.237020000000     0.824370000000     0.227430000000    -0.36386    
O92      O      0.205200000000     0.739040000000     0.227560000000    -0.364063   
O93      O      0.321750000000     0.792060000000     0.227420000000    -0.364217   
O94      O      0.239140000000     0.822440000000     0.279870000000    -0.367576   
O95      O      0.287960000000     0.708720000000     0.279880000000    -0.367507   
O96      O      0.319700000000     0.790070000000     0.279940000000    -0.368201   
O97      O      0.207380000000     0.741100000000     0.280090000000    -0.368447   
O98      O      0.239100000000     0.708700000000     0.279910000000    -0.367747   
O99      O      0.287970000000     0.822460000000     0.279790000000    -0.367457   
O100     O      0.207410000000     0.790050000000     0.280090000000    -0.368465   
O101     O      0.319660000000     0.741140000000     0.280020000000    -0.368338   
O102     O      0.263490000000     0.765550000000     0.241490000000    -0.591338   
C433     C      0.464170000000     0.965850000000     0.534700000000     0.400864   
C434     C      0.062800000000     0.565200000000     0.534820000000     0.400739   
C435     C      0.062810000000     0.965950000000     0.534820000000     0.4007     
C436     C      0.464180000000     0.565150000000     0.534810000000     0.400963   
C437     C      0.466700000000     0.562730000000     0.965760000000     0.394699   
C438     C      0.060320000000     0.968400000000     0.965740000000     0.394829   
C439     C      0.466810000000     0.968400000000     0.965660000000     0.394832   
C440     C      0.060260000000     0.562760000000     0.965740000000     0.39472    
C441     C      0.312780000000     0.815160000000     0.719420000000     0.400955   
C442     C      0.214160000000     0.715930000000     0.719580000000     0.400593   
C443     C      0.312820000000     0.715870000000     0.719550000000     0.401047   
C444     C      0.214140000000     0.815190000000     0.719560000000     0.401102   
C445     C      0.216810000000     0.812750000000     0.788630000000     0.394813   
C446     C      0.310300000000     0.718430000000     0.788600000000     0.394723   
C447     C      0.310330000000     0.812780000000     0.788490000000     0.394782   
C448     C      0.216770000000     0.718400000000     0.788650000000     0.394837   
C449     C      0.068310000000     0.604840000000     0.561310000000     0.0724771  
C450     C      0.082990000000     0.619990000000     0.579500000000    -0.0917621  
C451     C      0.107810000000     0.610090000000     0.588830000000     0.0493587  
C452     C      0.117410000000     0.585030000000     0.579320000000    -0.0917482  
C453     C      0.102230000000     0.570410000000     0.561120000000     0.0725333  
C454     C      0.123530000000     0.625710000000     0.608490000000    -0.00632382 
C455     C      0.125730000000     0.654360000000     0.606810000000    -0.0352486  
C456     C      0.140470000000     0.669040000000     0.625330000000    -0.035238   
C457     C      0.153330000000     0.655410000000     0.645980000000    -0.00634053 
C458     C      0.151130000000     0.626760000000     0.647660000000    -0.0352651  
C459     C      0.136390000000     0.612090000000     0.629140000000    -0.0352273  
C460     C      0.169070000000     0.671040000000     0.665620000000     0.0494686  
C461     C      0.159490000000     0.696100000000     0.675130000000    -0.091923   
C462     C      0.174700000000     0.710720000000     0.693310000000     0.0725859  
C463     C      0.208610000000     0.676280000000     0.693100000000     0.0725015  
C464     C      0.193890000000     0.661120000000     0.674940000000    -0.0918385  
C465     C      0.065320000000     0.602020000000     0.938650000000     0.0715756  
C466     C      0.080430000000     0.617620000000     0.921090000000    -0.0914774  
C467     C      0.105530000000     0.608010000000     0.912170000000     0.0490042  
C468     C      0.114630000000     0.582450000000     0.920900000000    -0.0914972  
C469     C      0.099040000000     0.567400000000     0.938460000000     0.0716586  
C470     C      0.122310000000     0.624720000000     0.894150000000    -0.00624846 
C471     C      0.124620000000     0.653190000000     0.897600000000    -0.0351908  
C472     C      0.140630000000     0.668880000000     0.880860000000    -0.0353875  
C473     C      0.154730000000     0.656470000000     0.860270000000    -0.00618214 
C474     C      0.152420000000     0.627990000000     0.856810000000    -0.035296   
C475     C      0.136410000000     0.612300000000     0.873560000000    -0.0353385  
C476     C      0.171510000000     0.673170000000     0.842250000000     0.0488707  
C477     C      0.162420000000     0.698740000000     0.833520000000    -0.0913765  
C478     C      0.178000000000     0.713780000000     0.815940000000     0.0716053  
C479     C      0.211710000000     0.679150000000     0.815760000000     0.0715645  
C480     C      0.196610000000     0.663560000000     0.833310000000    -0.0913964  
C481     C      0.208590000000     0.854840000000     0.693090000000     0.0725619  
C482     C      0.193870000000     0.870000000000     0.674920000000    -0.0918031  
C483     C      0.169050000000     0.860090000000     0.665620000000     0.049502   
C484     C      0.159470000000     0.835030000000     0.675130000000    -0.091854   
C485     C      0.174680000000     0.820410000000     0.693310000000     0.0725722  
C486     C      0.153320000000     0.875720000000     0.645980000000    -0.00633636 
C487     C      0.151110000000     0.904370000000     0.647680000000    -0.0352549  
C488     C      0.136380000000     0.919050000000     0.629150000000    -0.0351987  
C489     C      0.123520000000     0.905430000000     0.608500000000    -0.00629974 
C490     C      0.125720000000     0.876780000000     0.606810000000    -0.0352737  
C491     C      0.140440000000     0.862100000000     0.625330000000    -0.0351806  
C492     C      0.107810000000     0.921060000000     0.588840000000     0.0494554  
C493     C      0.117400000000     0.946130000000     0.579340000000    -0.0918168  
C494     C      0.102230000000     0.960740000000     0.561140000000     0.0726252  
C495     C      0.068320000000     0.926310000000     0.561310000000     0.0725938  
C496     C      0.083000000000     0.911150000000     0.579500000000    -0.0918637  
C497     C      0.424780000000     0.570330000000     0.561170000000     0.0726668  
C498     C      0.409580000000     0.584960000000     0.579340000000    -0.0917341  
C499     C      0.419150000000     0.610050000000     0.588810000000     0.0495819  
C500     C      0.443950000000     0.619970000000     0.579460000000    -0.0917708  
C501     C      0.458630000000     0.604830000000     0.561250000000     0.0726409  
C502     C      0.403440000000     0.625670000000     0.608460000000    -0.00622862 
C503     C      0.375050000000     0.627630000000     0.606670000000    -0.0351153  
C504     C      0.360270000000     0.642220000000     0.625220000000    -0.035126   
C505     C      0.373550000000     0.655190000000     0.646010000000    -0.00622459 
C506     C      0.401930000000     0.653220000000     0.647810000000    -0.0350679  
C507     C      0.416710000000     0.638640000000     0.629260000000    -0.0351438  
C508     C      0.357840000000     0.670850000000     0.665650000000     0.0495965  
C509     C      0.333030000000     0.660960000000     0.675010000000    -0.0917312  
C510     C      0.318350000000     0.676140000000     0.693180000000     0.0726338  
C511     C      0.352220000000     0.710610000000     0.693230000000     0.0728596  
C512     C      0.367420000000     0.695950000000     0.675080000000    -0.0918615  
C513     C      0.428050000000     0.963780000000     0.938340000000     0.0718527  
C514     C      0.412470000000     0.948740000000     0.920750000000    -0.0914505  
C515     C      0.421600000000     0.923190000000     0.911990000000     0.0491504  
C516     C      0.446700000000     0.913600000000     0.920930000000    -0.0913705  
C517     C      0.461780000000     0.929180000000     0.938500000000     0.0718077  
C518     C      0.404830000000     0.906500000000     0.893960000000    -0.00613217 
C519     C      0.390720000000     0.918920000000     0.873370000000    -0.0351626  
C520     C      0.374720000000     0.903240000000     0.856610000000    -0.0351825  
C521     C      0.372440000000     0.874750000000     0.860030000000    -0.00612233 
C522     C      0.386550000000     0.862330000000     0.880620000000    -0.0351834  
C523     C      0.402550000000     0.878010000000     0.897380000000    -0.0351294  
C524     C      0.355650000000     0.858050000000     0.842010000000     0.0491623  
C525     C      0.330540000000     0.867660000000     0.833100000000    -0.0915329  
C526     C      0.315430000000     0.852060000000     0.815570000000     0.0718322  
C527     C      0.349140000000     0.817440000000     0.815710000000     0.071805   
C528     C      0.364750000000     0.832490000000     0.833270000000    -0.0914668  
C529     C      0.427930000000     0.567310000000     0.938460000000     0.071804   
C530     C      0.412290000000     0.582360000000     0.920940000000    -0.0916174  
C531     C      0.421330000000     0.607950000000     0.912230000000     0.0491049  
C532     C      0.446420000000     0.617600000000     0.921150000000    -0.0913209  
C533     C      0.461550000000     0.602030000000     0.938710000000     0.0716144  
C534     C      0.404520000000     0.624630000000     0.894220000000    -0.00621856 
C535     C      0.376230000000     0.626250000000     0.897510000000    -0.0351669  
C536     C      0.360410000000     0.642050000000     0.880700000000    -0.0353386  
C537     C      0.372490000000     0.656620000000     0.860200000000    -0.0061201  
C538     C      0.400760000000     0.655010000000     0.856910000000    -0.0352396  
C539     C      0.416590000000     0.639210000000     0.873720000000    -0.0352475  
C540     C      0.355670000000     0.673280000000     0.842170000000     0.049021   
C541     C      0.330580000000     0.663630000000     0.833260000000    -0.0912733  
C542     C      0.315450000000     0.679170000000     0.815690000000     0.0715637  
C543     C      0.349070000000     0.713890000000     0.815890000000     0.0717798  
C544     C      0.364710000000     0.698870000000     0.833440000000    -0.0916112  
C545     C      0.178080000000     0.817390000000     0.815950000000     0.071651   
C546     C      0.162510000000     0.832440000000     0.833540000000    -0.0914188  
C547     C      0.171620000000     0.858010000000     0.842260000000     0.0490044  
C548     C      0.196700000000     0.867620000000     0.833300000000    -0.0914206  
C549     C      0.211790000000     0.852020000000     0.815730000000     0.0716716  
C550     C      0.154850000000     0.874720000000     0.860300000000    -0.00611986 
C551     C      0.140780000000     0.862310000000     0.880900000000    -0.0352339  
C552     C      0.124770000000     0.877990000000     0.897650000000    -0.0352124  
C553     C      0.122450000000     0.906470000000     0.894190000000    -0.00617391 
C554     C      0.136540000000     0.918880000000     0.873590000000    -0.0352322  
C555     C      0.152550000000     0.903200000000     0.856840000000    -0.0352565  
C556     C      0.105650000000     0.923170000000     0.912190000000     0.0490768  
C557     C      0.080560000000     0.913550000000     0.921120000000    -0.0913985  
C558     C      0.065430000000     0.929130000000     0.938660000000     0.0716979  
C559     C      0.099120000000     0.963780000000     0.938490000000     0.0717419  
C560     C      0.114730000000     0.948730000000     0.920930000000    -0.0914191  
C561     C      0.458620000000     0.926120000000     0.561070000000     0.0727422  
C562     C      0.443930000000     0.910940000000     0.579220000000    -0.0917487  
C563     C      0.419110000000     0.920820000000     0.588560000000     0.0495887  
C564     C      0.409520000000     0.945910000000     0.579110000000    -0.0917632  
C565     C      0.424740000000     0.960580000000     0.560980000000     0.0728153  
C566     C      0.403390000000     0.905160000000     0.608190000000    -0.00614096 
C567     C      0.416650000000     0.892220000000     0.629000000000    -0.0351528  
C568     C      0.401870000000     0.877640000000     0.647550000000    -0.0350163  
C569     C      0.373490000000     0.875670000000     0.645750000000    -0.00626704 
C570     C      0.360230000000     0.888600000000     0.624940000000    -0.0350084  
C571     C      0.375010000000     0.903190000000     0.606370000000    -0.0351808  
C572     C      0.357780000000     0.860040000000     0.665390000000     0.0496089  
C573     C      0.367360000000     0.834960000000     0.674870000000    -0.0917598  
C574     C      0.352170000000     0.820330000000     0.693060000000     0.0727478  
C575     C      0.318300000000     0.854810000000     0.692950000000     0.0726905  
C576     C      0.332970000000     0.869950000000     0.674740000000    -0.0917574  
Co25     Co     0.473420000000     0.515530000000     0.502080000000     0.84189    
Co26     Co     0.053590000000     0.515570000000     0.502090000000     0.841758   
Co27     Co     0.013530000000     0.974960000000     0.502150000000     0.837788   
Co28     Co     0.013490000000     0.556160000000     0.502180000000     0.837238   
Co29     Co     0.263510000000     0.806160000000     0.752110000000     0.837832   
Co30     Co     0.263500000000     0.724960000000     0.752170000000     0.837936   
Co31     Co     0.303590000000     0.765560000000     0.752180000000     0.841772   
Co32     Co     0.223420000000     0.765570000000     0.752260000000     0.841962   
H289     H      0.049100000000     0.613200000000     0.554800000000     0.0308469  
H290     H      0.074670000000     0.639140000000     0.586540000000     0.0528217  
H291     H      0.136690000000     0.576790000000     0.585730000000     0.0529042  
H292     H      0.110450000000     0.551090000000     0.554370000000     0.0310875  
H293     H      0.116400000000     0.665440000000     0.590930000000     0.0381091  
H294     H      0.142130000000     0.691050000000     0.623230000000     0.0380055  
H295     H      0.160460000000     0.615690000000     0.663540000000     0.0381327  
H296     H      0.134730000000     0.590080000000     0.631230000000     0.0380055  
H297     H      0.140220000000     0.704340000000     0.668740000000     0.0529698  
H298     H      0.166500000000     0.730050000000     0.700070000000     0.0310686  
H299     H      0.227820000000     0.667920000000     0.699600000000     0.0309157  
H300     H      0.202200000000     0.641980000000     0.667900000000     0.0529381  
H301     H      0.046100000000     0.610350000000     0.945140000000     0.0311903  
H302     H      0.072390000000     0.637060000000     0.914500000000     0.05261    
H303     H      0.134010000000     0.574310000000     0.914680000000     0.0527474  
H304     H      0.107080000000     0.547880000000     0.944920000000     0.0314829  
H305     H      0.114400000000     0.663340000000     0.913540000000     0.0382954  
H306     H      0.142270000000     0.690700000000     0.884290000000     0.0377892  
H307     H      0.162640000000     0.617840000000     0.840880000000     0.0382763  
H308     H      0.134770000000     0.590480000000     0.870120000000     0.0377303  
H309     H      0.143030000000     0.706880000000     0.839740000000     0.0526254  
H310     H      0.169970000000     0.733300000000     0.809490000000     0.0314132  
H311     H      0.230930000000     0.670810000000     0.809250000000     0.0312319  
H312     H      0.204650000000     0.644110000000     0.839900000000     0.0525951  
H313     H      0.227810000000     0.863200000000     0.699580000000     0.030937   
H314     H      0.202190000000     0.889150000000     0.667890000000     0.0529404  
H315     H      0.140190000000     0.826780000000     0.668750000000     0.0529421  
H316     H      0.166480000000     0.801070000000     0.700070000000     0.0310726  
H317     H      0.160430000000     0.915440000000     0.663560000000     0.0381993  
H318     H      0.134720000000     0.941060000000     0.631250000000     0.03807    
H319     H      0.116400000000     0.865710000000     0.590930000000     0.0381502  
H320     H      0.142110000000     0.840090000000     0.623230000000     0.0380069  
H321     H      0.136680000000     0.954360000000     0.585750000000     0.053014   
H322     H      0.110450000000     0.980070000000     0.554390000000     0.0311806  
H323     H      0.049110000000     0.917950000000     0.554800000000     0.0308266  
H324     H      0.074670000000     0.892010000000     0.586530000000     0.0528908  
H325     H      0.416680000000     0.550890000000     0.554560000000     0.031144   
H326     H      0.390650000000     0.576370000000     0.586260000000     0.0531135  
H327     H      0.451930000000     0.639460000000     0.585970000000     0.0531667  
H328     H      0.477740000000     0.613280000000     0.554600000000     0.0310224  
H329     H      0.364250000000     0.618230000000     0.590680000000     0.0383571  
H330     H      0.338470000000     0.643710000000     0.623040000000     0.0383336  
H331     H      0.412740000000     0.662630000000     0.663800000000     0.0383255  
H332     H      0.438510000000     0.637150000000     0.631430000000     0.0383376  
H333     H      0.325040000000     0.641460000000     0.668510000000     0.0531296  
H334     H      0.299230000000     0.667710000000     0.699830000000     0.0310033  
H335     H      0.360340000000     0.730060000000     0.699800000000     0.0310859  
H336     H      0.386350000000     0.704520000000     0.668150000000     0.0531562  
H337     H      0.420000000000     0.983280000000     0.944820000000     0.0316119  
H338     H      0.393100000000     0.956870000000     0.914530000000     0.0530344  
H339     H      0.454760000000     0.894170000000     0.914310000000     0.0528641  
H340     H      0.481010000000     0.920850000000     0.945000000000     0.0313651  
H341     H      0.392340000000     0.940750000000     0.869960000000     0.0380927  
H342     H      0.364490000000     0.913390000000     0.840700000000     0.0385808  
H343     H      0.384930000000     0.840500000000     0.884030000000     0.0380853  
H344     H      0.412780000000     0.867860000000     0.913300000000     0.0385933  
H345     H      0.322500000000     0.887090000000     0.839700000000     0.0529456  
H346     H      0.296190000000     0.860390000000     0.809090000000     0.0312932  
H347     H      0.357180000000     0.797920000000     0.809260000000     0.0314187  
H348     H      0.384140000000     0.824360000000     0.839470000000     0.0528927  
H349     H      0.420020000000     0.547680000000     0.944770000000     0.0314331  
H350     H      0.393260000000     0.573880000000     0.914180000000     0.0527816  
H351     H      0.454110000000     0.637370000000     0.915090000000     0.0528781  
H352     H      0.480680000000     0.610470000000     0.945330000000     0.031398   
H353     H      0.366340000000     0.615650000000     0.913360000000     0.0385068  
H354     H      0.338750000000     0.643160000000     0.884000000000     0.0380538  
H355     H      0.410660000000     0.665610000000     0.841060000000     0.0384393  
H356     H      0.438260000000     0.638090000000     0.870410000000     0.0379667  
H357     H      0.322880000000     0.643860000000     0.839340000000     0.0527889  
H358     H      0.296320000000     0.670720000000     0.809070000000     0.0313326  
H359     H      0.356970000000     0.733520000000     0.809570000000     0.0313605  
H360     H      0.383740000000     0.707360000000     0.840180000000     0.0527591  
H361     H      0.170030000000     0.797870000000     0.809520000000     0.0314121  
H362     H      0.143140000000     0.824300000000     0.839790000000     0.0527149  
H363     H      0.204750000000     0.887060000000     0.839880000000     0.0528132  
H364     H      0.231000000000     0.860350000000     0.809210000000     0.0312749  
H365     H      0.142420000000     0.840480000000     0.884330000000     0.0377971  
H366     H      0.114560000000     0.867840000000     0.913580000000     0.038388   
H367     H      0.134890000000     0.940700000000     0.870160000000     0.0378309  
H368     H      0.162760000000     0.913340000000     0.840910000000     0.0383834  
H369     H      0.072530000000     0.894100000000     0.914520000000     0.0527297  
H370     H      0.046200000000     0.920790000000     0.945140000000     0.0312482  
H371     H      0.107140000000     0.983310000000     0.944940000000     0.0315743  
H372     H      0.134110000000     0.956880000000     0.914720000000     0.0528446  
H373     H      0.477760000000     0.917690000000     0.554430000000     0.0309875  
H374     H      0.451920000000     0.891440000000     0.585740000000     0.0530998  
H375     H      0.390580000000     0.954470000000     0.586020000000     0.053244   
H376     H      0.416610000000     0.980020000000     0.554390000000     0.0312538  
H377     H      0.438450000000     0.893720000000     0.631190000000     0.0383843  
H378     H      0.412670000000     0.868250000000     0.663560000000     0.0383828  
H379     H      0.338420000000     0.887100000000     0.622740000000     0.0383349  
H380     H      0.364210000000     0.912580000000     0.590370000000     0.0384558  
H381     H      0.386290000000     0.826380000000     0.667960000000     0.0531736  
H382     H      0.360290000000     0.800910000000     0.699660000000     0.0311393  
H383     H      0.299180000000     0.863260000000     0.699600000000     0.0309883  
H384     H      0.324990000000     0.889440000000     0.668210000000     0.0531647  
N49      N      0.077770000000     0.580150000000     0.552260000000    -0.190629   
N50      N      0.199160000000     0.700970000000     0.702150000000    -0.190518   
N51      N      0.074700000000     0.577240000000     0.947540000000    -0.189596   
N52      N      0.202330000000     0.703930000000     0.806860000000    -0.189613   
N53      N      0.199150000000     0.830150000000     0.702150000000    -0.190745   
N54      N      0.077770000000     0.951000000000     0.552270000000    -0.190631   
N55      N      0.449210000000     0.580100000000     0.552260000000    -0.190599   
N56      N      0.327790000000     0.700880000000     0.702140000000    -0.190721   
N57      N      0.452380000000     0.953940000000     0.947430000000    -0.189534   
N58      N      0.324800000000     0.827280000000     0.806660000000    -0.189621   
N59      N      0.452230000000     0.577200000000     0.947570000000    -0.189521   
N60      N      0.324770000000     0.703990000000     0.806800000000    -0.189643   
N61      N      0.202400000000     0.827240000000     0.806850000000    -0.189604   
N62      N      0.074790000000     0.953920000000     0.947550000000    -0.189545   
N63      N      0.449190000000     0.950850000000     0.552090000000    -0.190665   
N64      N      0.327740000000     0.830100000000     0.701960000000    -0.190654   
O103     O      0.455210000000     0.988960000000     0.526740000000    -0.363931   
O104     O      0.071780000000     0.542100000000     0.526830000000    -0.364003   
O105     O      0.039950000000     0.956760000000     0.526900000000    -0.363797   
O106     O      0.487030000000     0.574360000000     0.526890000000    -0.363769   
O107     O      0.071780000000     0.989050000000     0.526830000000    -0.36378    
O108     O      0.455240000000     0.542040000000     0.526830000000    -0.364312   
O109     O      0.039940000000     0.574380000000     0.526910000000    -0.36377    
O110     O      0.487050000000     0.956680000000     0.526800000000    -0.363626   
O111     O      0.457340000000     0.540010000000     0.974300000000    -0.36791    
O112     O      0.069680000000     0.991110000000     0.974300000000    -0.367643   
O113     O      0.489150000000     0.958710000000     0.974390000000    -0.367169   
O114     O      0.037910000000     0.572440000000     0.974460000000    -0.36729    
O115     O      0.069640000000     0.540050000000     0.974290000000    -0.367898   
O116     O      0.457400000000     0.991080000000     0.974230000000    -0.367533   
O117     O      0.489040000000     0.572440000000     0.974480000000    -0.367085   
O118     O      0.037980000000     0.958700000000     0.974450000000    -0.367267   
O119     O      0.013510000000     0.515560000000     0.512820000000    -0.591405   
O120     O      0.289930000000     0.824350000000     0.727350000000    -0.363848   
O121     O      0.237030000000     0.706750000000     0.727470000000    -0.363799   
O122     O      0.321770000000     0.738990000000     0.727500000000    -0.364335   
O123     O      0.205200000000     0.792090000000     0.727570000000    -0.364451   
O124     O      0.289960000000     0.706700000000     0.727480000000    -0.363711   
O125     O      0.237020000000     0.824370000000     0.727430000000    -0.36385    
O126     O      0.205200000000     0.739040000000     0.727570000000    -0.364135   
O127     O      0.321750000000     0.792060000000     0.727410000000    -0.364212   
O128     O      0.239140000000     0.822440000000     0.779870000000    -0.367564   
O129     O      0.287960000000     0.708720000000     0.779880000000    -0.367506   
O130     O      0.319700000000     0.790070000000     0.779940000000    -0.368241   
O131     O      0.207380000000     0.741100000000     0.780090000000    -0.368291   
O132     O      0.239100000000     0.708700000000     0.779910000000    -0.367713   
O133     O      0.287970000000     0.822460000000     0.779790000000    -0.367482   
O134     O      0.207410000000     0.790050000000     0.780090000000    -0.368402   
O135     O      0.319660000000     0.741140000000     0.780020000000    -0.368271   
O136     O      0.263490000000     0.765550000000     0.741490000000    -0.59134    
C577     C      0.964170000000     0.465850000000     0.034690000000     0.400829   
C578     C      0.562800000000     0.065200000000     0.034810000000     0.400784   
C579     C      0.562810000000     0.465950000000     0.034820000000     0.400734   
C580     C      0.964180000000     0.065150000000     0.034810000000     0.400734   
C581     C      0.966710000000     0.062730000000     0.465750000000     0.394608   
C582     C      0.560320000000     0.468400000000     0.465740000000     0.394965   
C583     C      0.966810000000     0.468400000000     0.465660000000     0.395088   
C584     C      0.560260000000     0.062760000000     0.465740000000     0.394586   
C585     C      0.812780000000     0.315160000000     0.219420000000     0.400893   
C586     C      0.714160000000     0.215930000000     0.219580000000     0.401047   
C587     C      0.812810000000     0.215870000000     0.219550000000     0.400867   
C588     C      0.714140000000     0.315190000000     0.219560000000     0.400997   
C589     C      0.716810000000     0.312750000000     0.288630000000     0.394682   
C590     C      0.810300000000     0.218430000000     0.288590000000     0.394972   
C591     C      0.810330000000     0.312780000000     0.288490000000     0.394825   
C592     C      0.716770000000     0.218400000000     0.288640000000     0.39498    
C593     C      0.568310000000     0.104840000000     0.061310000000     0.0724081  
C594     C      0.583000000000     0.119990000000     0.079500000000    -0.0917515  
C595     C      0.607810000000     0.110090000000     0.088830000000     0.0493931  
C596     C      0.617410000000     0.085030000000     0.079330000000    -0.0918425  
C597     C      0.602230000000     0.070410000000     0.061120000000     0.0724625  
C598     C      0.623520000000     0.125710000000     0.108490000000    -0.00633933 
C599     C      0.625730000000     0.154360000000     0.106800000000    -0.0352962  
C600     C      0.640460000000     0.169040000000     0.125330000000    -0.0352461  
C601     C      0.653330000000     0.155410000000     0.145970000000    -0.00631374 
C602     C      0.651130000000     0.126760000000     0.147660000000    -0.035283   
C603     C      0.636390000000     0.112090000000     0.129130000000    -0.0352367  
C604     C      0.669070000000     0.171030000000     0.165620000000     0.0493779  
C605     C      0.659490000000     0.196110000000     0.175130000000    -0.0918424  
C606     C      0.674700000000     0.210720000000     0.193310000000     0.0726018  
C607     C      0.708610000000     0.176280000000     0.193100000000     0.0725024  
C608     C      0.693890000000     0.161120000000     0.174940000000    -0.0918242  
C609     C      0.565330000000     0.102020000000     0.438650000000     0.0715728  
C610     C      0.580430000000     0.117620000000     0.421090000000    -0.091559   
C611     C      0.605530000000     0.108010000000     0.412170000000     0.0490075  
C612     C      0.614630000000     0.082450000000     0.420900000000    -0.0915903  
C613     C      0.599040000000     0.067400000000     0.438460000000     0.071676   
C614     C      0.622320000000     0.124720000000     0.394150000000    -0.00625746 
C615     C      0.624620000000     0.153190000000     0.397600000000    -0.0352134  
C616     C      0.640630000000     0.168880000000     0.380860000000    -0.0353947  
C617     C      0.654730000000     0.156470000000     0.360270000000    -0.00620477 
C618     C      0.652420000000     0.127990000000     0.356810000000    -0.0353029  
C619     C      0.636410000000     0.112300000000     0.373560000000    -0.035357   
C620     C      0.671510000000     0.173170000000     0.342250000000     0.0488921  
C621     C      0.662420000000     0.198740000000     0.333520000000    -0.0914273  
C622     C      0.678000000000     0.213780000000     0.315940000000     0.0715558  
C623     C      0.711710000000     0.179150000000     0.315760000000     0.0716158  
C624     C      0.696610000000     0.163560000000     0.333310000000    -0.0914434  
C625     C      0.708590000000     0.354840000000     0.193090000000     0.0725406  
C626     C      0.693870000000     0.370000000000     0.174920000000    -0.0917913  
C627     C      0.669050000000     0.360090000000     0.165620000000     0.0494685  
C628     C      0.659470000000     0.335030000000     0.175130000000    -0.0917801  
C629     C      0.674680000000     0.320400000000     0.193310000000     0.0724892  
C630     C      0.653320000000     0.375720000000     0.145980000000    -0.0063346  
C631     C      0.651110000000     0.404370000000     0.147680000000    -0.0352508  
C632     C      0.636380000000     0.419050000000     0.129150000000    -0.0352101  
C633     C      0.623520000000     0.405430000000     0.108490000000    -0.00632296 
C634     C      0.625720000000     0.376780000000     0.106800000000    -0.0353309  
C635     C      0.640450000000     0.362100000000     0.125330000000    -0.0351879  
C636     C      0.607810000000     0.421060000000     0.088840000000     0.049464   
C637     C      0.617410000000     0.446130000000     0.079340000000    -0.0919293  
C638     C      0.602230000000     0.460740000000     0.061140000000     0.0725938  
C639     C      0.568320000000     0.426310000000     0.061310000000     0.0725987  
C640     C      0.583000000000     0.411150000000     0.079500000000    -0.0918982  
C641     C      0.924780000000     0.070330000000     0.061170000000     0.0727078  
C642     C      0.909580000000     0.084960000000     0.079340000000    -0.0918273  
C643     C      0.919150000000     0.110050000000     0.088800000000     0.0495784  
C644     C      0.943950000000     0.119970000000     0.079450000000    -0.0917645  
C645     C      0.958630000000     0.104830000000     0.061250000000     0.0725786  
C646     C      0.903440000000     0.125670000000     0.108460000000    -0.00623375 
C647     C      0.875050000000     0.127630000000     0.106660000000    -0.0351908  
C648     C      0.860270000000     0.142220000000     0.125220000000    -0.0351462  
C649     C      0.873550000000     0.155190000000     0.146010000000    -0.00621392 
C650     C      0.901940000000     0.153220000000     0.147810000000    -0.0351285  
C651     C      0.916710000000     0.138640000000     0.129260000000    -0.0351129  
C652     C      0.857840000000     0.170850000000     0.165640000000     0.0495181  
C653     C      0.833030000000     0.160960000000     0.175010000000    -0.091682   
C654     C      0.818350000000     0.176140000000     0.193180000000     0.0726298  
C655     C      0.852220000000     0.210610000000     0.193230000000     0.0727573  
C656     C      0.867420000000     0.195950000000     0.175080000000    -0.091784   
C657     C      0.928050000000     0.463780000000     0.438340000000     0.0717592  
C658     C      0.912480000000     0.448740000000     0.420750000000    -0.0913688  
C659     C      0.921600000000     0.423190000000     0.411990000000     0.0490833  
C660     C      0.946700000000     0.413590000000     0.420930000000    -0.0914076  
C661     C      0.961780000000     0.429180000000     0.438500000000     0.0717746  
C662     C      0.904830000000     0.406500000000     0.393950000000    -0.00612665 
C663     C      0.890720000000     0.418920000000     0.373370000000    -0.0351793  
C664     C      0.874720000000     0.403240000000     0.356610000000    -0.0352123  
C665     C      0.872440000000     0.374750000000     0.360040000000    -0.00609752 
C666     C      0.886550000000     0.362330000000     0.380620000000    -0.0352209  
C667     C      0.902550000000     0.378010000000     0.397380000000    -0.0351271  
C668     C      0.855650000000     0.358050000000     0.342020000000     0.049104   
C669     C      0.830540000000     0.367660000000     0.333100000000    -0.0915056  
C670     C      0.815430000000     0.352060000000     0.315570000000     0.0718133  
C671     C      0.849150000000     0.317440000000     0.315720000000     0.0717454  
C672     C      0.864750000000     0.332490000000     0.333270000000    -0.0914394  
C673     C      0.927930000000     0.067310000000     0.438460000000     0.071667   
C674     C      0.912290000000     0.082360000000     0.420940000000    -0.091564   
C675     C      0.921330000000     0.107950000000     0.412230000000     0.0490639  
C676     C      0.946420000000     0.117600000000     0.421150000000    -0.0913856  
C677     C      0.961550000000     0.102030000000     0.438710000000     0.0716535  
C678     C      0.904520000000     0.124630000000     0.394220000000    -0.00621718 
C679     C      0.876230000000     0.126250000000     0.397510000000    -0.0352471  
C680     C      0.860410000000     0.142050000000     0.380700000000    -0.0353323  
C681     C      0.872490000000     0.156620000000     0.360190000000    -0.00617066 
C682     C      0.900770000000     0.155010000000     0.356910000000    -0.0352442  
C683     C      0.916590000000     0.139210000000     0.373720000000    -0.0352445  
C684     C      0.855670000000     0.173280000000     0.342170000000     0.04903    
C685     C      0.830580000000     0.163620000000     0.333260000000    -0.0913413  
C686     C      0.815450000000     0.179170000000     0.315680000000     0.0716287  
C687     C      0.849070000000     0.213890000000     0.315890000000     0.0716824  
C688     C      0.864700000000     0.198860000000     0.333440000000    -0.091486   
C689     C      0.678080000000     0.317390000000     0.315950000000     0.0717337  
C690     C      0.662510000000     0.332440000000     0.333540000000    -0.0914783  
C691     C      0.671620000000     0.358010000000     0.342260000000     0.0489974  
C692     C      0.696710000000     0.367620000000     0.333300000000    -0.0914221  
C693     C      0.711790000000     0.352020000000     0.315730000000     0.0716368  
C694     C      0.654850000000     0.374720000000     0.360290000000    -0.00615915 
C695     C      0.640780000000     0.362310000000     0.380900000000    -0.0352324  
C696     C      0.624770000000     0.377990000000     0.397650000000    -0.0352482  
C697     C      0.622460000000     0.406470000000     0.394190000000    -0.00616359 
C698     C      0.636550000000     0.418880000000     0.373590000000    -0.0352604  
C699     C      0.652550000000     0.403200000000     0.356840000000    -0.0352447  
C700     C      0.605650000000     0.423170000000     0.412190000000     0.0490053  
C701     C      0.580550000000     0.413550000000     0.421120000000    -0.0914014  
C702     C      0.565430000000     0.429130000000     0.438660000000     0.0716783  
C703     C      0.599120000000     0.463780000000     0.438490000000     0.0716716  
C704     C      0.614730000000     0.448730000000     0.420930000000    -0.0914515  
C705     C      0.958620000000     0.426120000000     0.061070000000     0.0727062  
C706     C      0.943930000000     0.410930000000     0.079230000000    -0.0918591  
C707     C      0.919110000000     0.420820000000     0.088560000000     0.0496356  
C708     C      0.909520000000     0.445910000000     0.079110000000    -0.0918426  
C709     C      0.924730000000     0.460580000000     0.060980000000     0.0727125  
C710     C      0.903390000000     0.405160000000     0.108190000000    -0.00620964 
C711     C      0.916650000000     0.392220000000     0.129000000000    -0.0350762  
C712     C      0.901870000000     0.377640000000     0.147550000000    -0.0350511  
C713     C      0.873490000000     0.375670000000     0.145750000000    -0.00627736 
C714     C      0.860230000000     0.388610000000     0.124940000000    -0.0350418  
C715     C      0.875010000000     0.403190000000     0.106370000000    -0.0351777  
C716     C      0.857780000000     0.360030000000     0.165390000000     0.0496428  
C717     C      0.867360000000     0.334960000000     0.174870000000    -0.0918418  
C718     C      0.852170000000     0.320330000000     0.193060000000     0.0727701  
C719     C      0.818300000000     0.354810000000     0.192950000000     0.0726889  
C720     C      0.832970000000     0.369950000000     0.174740000000    -0.0917791  
Co33     Co     0.973420000000     0.015540000000     0.002080000000     0.840681   
Co34     Co     0.553600000000     0.015570000000     0.002090000000     0.840106   
Co35     Co     0.513530000000     0.474960000000     0.002150000000     0.836804   
Co36     Co     0.513490000000     0.056160000000     0.002170000000     0.836972   
Co37     Co     0.763510000000     0.306160000000     0.252110000000     0.837769   
Co38     Co     0.763500000000     0.224950000000     0.252160000000     0.838219   
Co39     Co     0.803590000000     0.265560000000     0.252180000000     0.841814   
Co40     Co     0.723420000000     0.265570000000     0.252270000000     0.841968   
H385     H      0.549090000000     0.113200000000     0.054810000000     0.0308629  
H386     H      0.574670000000     0.139140000000     0.086540000000     0.0528197  
H387     H      0.636690000000     0.076790000000     0.085720000000     0.0528419  
H388     H      0.610450000000     0.051080000000     0.054370000000     0.0309532  
H389     H      0.616400000000     0.165440000000     0.090930000000     0.0380901  
H390     H      0.642130000000     0.191050000000     0.123230000000     0.0379862  
H391     H      0.660460000000     0.115680000000     0.163540000000     0.0380985  
H392     H      0.634740000000     0.090080000000     0.131230000000     0.0379691  
H393     H      0.640210000000     0.204340000000     0.168740000000     0.0529537  
H394     H      0.666500000000     0.230050000000     0.200070000000     0.0310778  
H395     H      0.727820000000     0.167920000000     0.199590000000     0.0308829  
H396     H      0.702200000000     0.141980000000     0.167900000000     0.0528936  
H397     H      0.546090000000     0.110350000000     0.445140000000     0.031215   
H398     H      0.572390000000     0.137060000000     0.414510000000     0.0526479  
H399     H      0.634010000000     0.074310000000     0.414680000000     0.0526576  
H400     H      0.607080000000     0.047880000000     0.444920000000     0.0313075  
H401     H      0.614400000000     0.163340000000     0.413540000000     0.0382454  
H402     H      0.642270000000     0.190700000000     0.384290000000     0.037757   
H403     H      0.662640000000     0.117840000000     0.340880000000     0.0382486  
H404     H      0.634770000000     0.090480000000     0.370120000000     0.037691   
H405     H      0.643040000000     0.206880000000     0.339740000000     0.0526782  
H406     H      0.669970000000     0.233300000000     0.309490000000     0.0314366  
H407     H      0.730930000000     0.170810000000     0.309250000000     0.0312034  
H408     H      0.704650000000     0.144110000000     0.339900000000     0.0525625  
H409     H      0.727810000000     0.363200000000     0.199580000000     0.0309309  
H410     H      0.702190000000     0.389150000000     0.167890000000     0.0528947  
H411     H      0.640190000000     0.326780000000     0.168750000000     0.0529415  
H412     H      0.666480000000     0.301070000000     0.200070000000     0.0310997  
H413     H      0.660440000000     0.415440000000     0.163560000000     0.0381595  
H414     H      0.634720000000     0.441060000000     0.131250000000     0.0380275  
H415     H      0.616400000000     0.365710000000     0.090930000000     0.0381339  
H416     H      0.642110000000     0.340090000000     0.123230000000     0.037988   
H417     H      0.636680000000     0.454360000000     0.085750000000     0.0529613  
H418     H      0.610450000000     0.480070000000     0.054390000000     0.0310114  
H419     H      0.549100000000     0.417950000000     0.054800000000     0.0308425  
H420     H      0.574670000000     0.392010000000     0.086530000000     0.0529116  
H421     H      0.916670000000     0.050890000000     0.054560000000     0.0309704  
H422     H      0.890650000000     0.076370000000     0.086260000000     0.0530424  
H423     H      0.951930000000     0.139460000000     0.085970000000     0.0531646  
H424     H      0.977740000000     0.113280000000     0.054600000000     0.0310551  
H425     H      0.864250000000     0.118230000000     0.090680000000     0.0382945  
H426     H      0.838470000000     0.143700000000     0.123040000000     0.0382781  
H427     H      0.912730000000     0.162630000000     0.163800000000     0.0383861  
H428     H      0.938510000000     0.137150000000     0.131430000000     0.0383655  
H429     H      0.825040000000     0.141460000000     0.168500000000     0.053071   
H430     H      0.799220000000     0.167710000000     0.199830000000     0.0310039  
H431     H      0.860340000000     0.230060000000     0.199800000000     0.0311371  
H432     H      0.886350000000     0.204520000000     0.168150000000     0.0531475  
H433     H      0.920000000000     0.483280000000     0.444820000000     0.0314457  
H434     H      0.893090000000     0.456870000000     0.414530000000     0.0528425  
H435     H      0.954760000000     0.394170000000     0.414310000000     0.0529173  
H436     H      0.981010000000     0.420850000000     0.445000000000     0.0313935  
H437     H      0.892340000000     0.440750000000     0.369960000000     0.0380526  
H438     H      0.864490000000     0.413390000000     0.340700000000     0.0385575  
H439     H      0.884930000000     0.340500000000     0.384030000000     0.0380629  
H440     H      0.912780000000     0.367850000000     0.413300000000     0.0385348  
H441     H      0.822500000000     0.387090000000     0.339700000000     0.0528909  
H442     H      0.796190000000     0.360390000000     0.309080000000     0.0312821  
H443     H      0.857180000000     0.297910000000     0.309260000000     0.0314508  
H444     H      0.884140000000     0.324360000000     0.339470000000     0.0528985  
H445     H      0.920020000000     0.047680000000     0.444770000000     0.0312914  
H446     H      0.893250000000     0.073880000000     0.414180000000     0.0526379  
H447     H      0.954120000000     0.137360000000     0.415090000000     0.0529126  
H448     H      0.980680000000     0.110470000000     0.445330000000     0.0313977  
H449     H      0.866340000000     0.115650000000     0.413350000000     0.0384345  
H450     H      0.838750000000     0.143160000000     0.384000000000     0.0379832  
H451     H      0.910660000000     0.165610000000     0.341060000000     0.0384728  
H452     H      0.938260000000     0.138090000000     0.370410000000     0.0379979  
H453     H      0.822880000000     0.143860000000     0.339340000000     0.052797   
H454     H      0.796320000000     0.170720000000     0.309070000000     0.0312894  
H455     H      0.856970000000     0.233520000000     0.309570000000     0.0313931  
H456     H      0.883740000000     0.207360000000     0.340190000000     0.0526844  
H457     H      0.670030000000     0.297870000000     0.309520000000     0.0313907  
H458     H      0.643140000000     0.324310000000     0.339790000000     0.0527556  
H459     H      0.704760000000     0.387060000000     0.339880000000     0.0527675  
H460     H      0.731010000000     0.360350000000     0.309210000000     0.0312721  
H461     H      0.642410000000     0.340480000000     0.384330000000     0.0377637  
H462     H      0.614560000000     0.367840000000     0.413580000000     0.0383429  
H463     H      0.634890000000     0.440700000000     0.370160000000     0.0377888  
H464     H      0.662760000000     0.413340000000     0.340910000000     0.038349   
H465     H      0.572520000000     0.394100000000     0.414520000000     0.0527401  
H466     H      0.546200000000     0.420790000000     0.445140000000     0.0312649  
H467     H      0.607140000000     0.483310000000     0.444940000000     0.0314087  
H468     H      0.634110000000     0.456880000000     0.414720000000     0.0527349  
H469     H      0.977750000000     0.417690000000     0.054430000000     0.0310035  
H470     H      0.951910000000     0.391440000000     0.085740000000     0.0531887  
H471     H      0.890580000000     0.454470000000     0.086010000000     0.0531727  
H472     H      0.916610000000     0.480020000000     0.054390000000     0.0310986  
H473     H      0.938460000000     0.393720000000     0.131200000000     0.0383802  
H474     H      0.912670000000     0.368250000000     0.163560000000     0.0384177  
H475     H      0.838420000000     0.387100000000     0.122740000000     0.0382799  
H476     H      0.864210000000     0.412580000000     0.090370000000     0.0383566  
H477     H      0.886280000000     0.326380000000     0.167950000000     0.0532225  
H478     H      0.860290000000     0.300910000000     0.199670000000     0.0311497  
H479     H      0.799180000000     0.363260000000     0.199590000000     0.0309595  
H480     H      0.824990000000     0.389440000000     0.168210000000     0.0531339  
N65      N      0.577770000000     0.080150000000     0.052260000000    -0.190606   
N66      N      0.699160000000     0.200970000000     0.202150000000    -0.1906     
N67      N      0.574710000000     0.077240000000     0.447540000000    -0.189609   
N68      N      0.702330000000     0.203920000000     0.306850000000    -0.189589   
N69      N      0.699150000000     0.330150000000     0.202150000000    -0.19069    
N70      N      0.577780000000     0.450990000000     0.052270000000    -0.190624   
N71      N      0.949200000000     0.080100000000     0.052260000000    -0.190564   
N72      N      0.827780000000     0.200880000000     0.202140000000    -0.190652   
N73      N      0.952380000000     0.453940000000     0.447430000000    -0.189611   
N74      N      0.824800000000     0.327280000000     0.306670000000    -0.189563   
N75      N      0.952230000000     0.077210000000     0.447570000000    -0.189527   
N76      N      0.824770000000     0.203980000000     0.306800000000    -0.1896     
N77      N      0.702390000000     0.327240000000     0.306850000000    -0.189574   
N78      N      0.574790000000     0.453920000000     0.447550000000    -0.189607   
N79      N      0.949180000000     0.450840000000     0.052090000000    -0.190549   
N80      N      0.827740000000     0.330100000000     0.201960000000    -0.190655   
O137     O      0.955220000000     0.488960000000     0.026740000000    -0.364466   
O138     O      0.571780000000     0.042100000000     0.026830000000    -0.364168   
O139     O      0.539960000000     0.456760000000     0.026900000000    -0.363858   
O140     O      0.987030000000     0.074360000000     0.026890000000    -0.363411   
O141     O      0.571780000000     0.489050000000     0.026830000000    -0.364183   
O142     O      0.955240000000     0.042040000000     0.026830000000    -0.364371   
O143     O      0.539940000000     0.074370000000     0.026900000000    -0.363869   
O144     O      0.987050000000     0.456680000000     0.026800000000    -0.363389   
O145     O      0.957340000000     0.040010000000     0.474300000000    -0.368395   
O146     O      0.569680000000     0.491110000000     0.474300000000    -0.368503   
O147     O      0.989140000000     0.458710000000     0.474390000000    -0.367454   
O148     O      0.537910000000     0.072440000000     0.474460000000    -0.367643   
O149     O      0.569650000000     0.040050000000     0.474290000000    -0.368337   
O150     O      0.957400000000     0.491080000000     0.474240000000    -0.368469   
O151     O      0.989040000000     0.072440000000     0.474480000000    -0.367243   
O152     O      0.537980000000     0.458700000000     0.474450000000    -0.367686   
O153     O      0.513510000000     0.015550000000     0.012820000000    -0.591012   
O154     O      0.789930000000     0.324350000000     0.227350000000    -0.363824   
O155     O      0.737030000000     0.206750000000     0.227470000000    -0.364047   
O156     O      0.821780000000     0.238990000000     0.227500000000    -0.364176   
O157     O      0.705200000000     0.292090000000     0.227560000000    -0.364362   
O158     O      0.789950000000     0.206700000000     0.227480000000    -0.363876   
O159     O      0.737020000000     0.324380000000     0.227430000000    -0.363743   
O160     O      0.705210000000     0.239030000000     0.227560000000    -0.364327   
O161     O      0.821750000000     0.292060000000     0.227420000000    -0.364217   
O162     O      0.739140000000     0.322440000000     0.279870000000    -0.367528   
O163     O      0.787960000000     0.208720000000     0.279880000000    -0.367627   
O164     O      0.819690000000     0.290070000000     0.279940000000    -0.368329   
O165     O      0.707380000000     0.241100000000     0.280090000000    -0.36843    
O166     O      0.739100000000     0.208700000000     0.279910000000    -0.367801   
O167     O      0.787970000000     0.322460000000     0.279790000000    -0.367476   
O168     O      0.707420000000     0.290040000000     0.280090000000    -0.368469   
O169     O      0.819660000000     0.241130000000     0.280020000000    -0.368439   
O170     O      0.763490000000     0.265550000000     0.241490000000    -0.591297   
C721     C      0.964170000000     0.465850000000     0.534700000000     0.400861   
C722     C      0.562800000000     0.065200000000     0.534820000000     0.400894   
C723     C      0.562810000000     0.465950000000     0.534820000000     0.400838   
C724     C      0.964180000000     0.065150000000     0.534810000000     0.400866   
C725     C      0.966710000000     0.062730000000     0.965760000000     0.394644   
C726     C      0.560320000000     0.468400000000     0.965740000000     0.394887   
C727     C      0.966810000000     0.468400000000     0.965660000000     0.395069   
C728     C      0.560260000000     0.062760000000     0.965740000000     0.394532   
C729     C      0.812780000000     0.315160000000     0.719420000000     0.400954   
C730     C      0.714160000000     0.215930000000     0.719580000000     0.400991   
C731     C      0.812810000000     0.215870000000     0.719550000000     0.400847   
C732     C      0.714140000000     0.315190000000     0.719560000000     0.400963   
C733     C      0.716810000000     0.312750000000     0.788630000000     0.394665   
C734     C      0.810300000000     0.218430000000     0.788600000000     0.394908   
C735     C      0.810330000000     0.312780000000     0.788490000000     0.394921   
C736     C      0.716770000000     0.218400000000     0.788650000000     0.394801   
C737     C      0.568310000000     0.104840000000     0.561310000000     0.0724678  
C738     C      0.583000000000     0.119990000000     0.579500000000    -0.0917285  
C739     C      0.607810000000     0.110090000000     0.588830000000     0.0493971  
C740     C      0.617410000000     0.085030000000     0.579320000000    -0.0917895  
C741     C      0.602230000000     0.070410000000     0.561120000000     0.0725375  
C742     C      0.623520000000     0.125710000000     0.608490000000    -0.00635351 
C743     C      0.625730000000     0.154360000000     0.606810000000    -0.0352216  
C744     C      0.640460000000     0.169040000000     0.625330000000    -0.0352339  
C745     C      0.653330000000     0.155410000000     0.645980000000    -0.00633556 
C746     C      0.651130000000     0.126760000000     0.647660000000    -0.0352546  
C747     C      0.636390000000     0.112090000000     0.629140000000    -0.0352306  
C748     C      0.669070000000     0.171030000000     0.665620000000     0.0493993  
C749     C      0.659490000000     0.196110000000     0.675130000000    -0.0918467  
C750     C      0.674700000000     0.210720000000     0.693310000000     0.0726023  
C751     C      0.708610000000     0.176280000000     0.693100000000     0.0725016  
C752     C      0.693890000000     0.161120000000     0.674940000000    -0.0918248  
C753     C      0.565330000000     0.102020000000     0.938650000000     0.0716136  
C754     C      0.580430000000     0.117620000000     0.921090000000    -0.0915041  
C755     C      0.605530000000     0.108010000000     0.912170000000     0.0490172  
C756     C      0.614630000000     0.082450000000     0.920900000000    -0.0915563  
C757     C      0.599040000000     0.067400000000     0.938460000000     0.0717207  
C758     C      0.622320000000     0.124720000000     0.894150000000    -0.00623021 
C759     C      0.624620000000     0.153190000000     0.897600000000    -0.0351997  
C760     C      0.640630000000     0.168880000000     0.880860000000    -0.0353681  
C761     C      0.654730000000     0.156470000000     0.860270000000    -0.00620346 
C762     C      0.652420000000     0.127990000000     0.856810000000    -0.0352902  
C763     C      0.636410000000     0.112300000000     0.873560000000    -0.0353566  
C764     C      0.671510000000     0.173170000000     0.842250000000     0.0489134  
C765     C      0.662420000000     0.198740000000     0.833520000000    -0.0914366  
C766     C      0.678000000000     0.213780000000     0.815940000000     0.0715873  
C767     C      0.711710000000     0.179150000000     0.815760000000     0.0716484  
C768     C      0.696610000000     0.163560000000     0.833310000000    -0.091451   
C769     C      0.708590000000     0.354840000000     0.693090000000     0.0725432  
C770     C      0.693870000000     0.370000000000     0.674920000000    -0.0917876  
C771     C      0.669050000000     0.360090000000     0.665620000000     0.0494726  
C772     C      0.659470000000     0.335030000000     0.675130000000    -0.0917776  
C773     C      0.674680000000     0.320400000000     0.693310000000     0.0724869  
C774     C      0.653320000000     0.375720000000     0.645980000000    -0.00632416 
C775     C      0.651110000000     0.404370000000     0.647680000000    -0.0352475  
C776     C      0.636380000000     0.419050000000     0.629150000000    -0.0352078  
C777     C      0.623520000000     0.405430000000     0.608500000000    -0.00630635 
C778     C      0.625720000000     0.376780000000     0.606810000000    -0.0352692  
C779     C      0.640450000000     0.362100000000     0.625330000000    -0.0351851  
C780     C      0.607810000000     0.421060000000     0.588840000000     0.04948    
C781     C      0.617410000000     0.446130000000     0.579340000000    -0.0919069  
C782     C      0.602230000000     0.460740000000     0.561140000000     0.0726405  
C783     C      0.568320000000     0.426310000000     0.561310000000     0.072646   
C784     C      0.583000000000     0.411150000000     0.579500000000    -0.0918785  
C785     C      0.924780000000     0.070330000000     0.561170000000     0.0727526  
C786     C      0.909580000000     0.084960000000     0.579340000000    -0.0917959  
C787     C      0.919150000000     0.110050000000     0.588810000000     0.0495976  
C788     C      0.943950000000     0.119970000000     0.579460000000    -0.0917344  
C789     C      0.958630000000     0.104830000000     0.561250000000     0.0725996  
C790     C      0.903440000000     0.125670000000     0.608460000000    -0.00625334 
C791     C      0.875050000000     0.127630000000     0.606670000000    -0.035108   
C792     C      0.860270000000     0.142220000000     0.625220000000    -0.0351489  
C793     C      0.873550000000     0.155190000000     0.646010000000    -0.00620468 
C794     C      0.901940000000     0.153220000000     0.647810000000    -0.035132   
C795     C      0.916710000000     0.138640000000     0.629260000000    -0.0350926  
C796     C      0.857840000000     0.170850000000     0.665650000000     0.0495759  
C797     C      0.833030000000     0.160960000000     0.675010000000    -0.0917421  
C798     C      0.818350000000     0.176140000000     0.693180000000     0.0726539  
C799     C      0.852220000000     0.210610000000     0.693230000000     0.0727757  
C800     C      0.867420000000     0.195950000000     0.675080000000    -0.091817   
C801     C      0.928050000000     0.463780000000     0.938340000000     0.0718157  
C802     C      0.912480000000     0.448740000000     0.920750000000    -0.0913501  
C803     C      0.921600000000     0.423190000000     0.911990000000     0.0491238  
C804     C      0.946700000000     0.413590000000     0.920930000000    -0.0913898  
C805     C      0.961780000000     0.429180000000     0.938500000000     0.0718253  
C806     C      0.904830000000     0.406500000000     0.893960000000    -0.00613041 
C807     C      0.890720000000     0.418920000000     0.873370000000    -0.0351676  
C808     C      0.874720000000     0.403240000000     0.856610000000    -0.0351935  
C809     C      0.872440000000     0.374750000000     0.860030000000    -0.00611509 
C810     C      0.886550000000     0.362330000000     0.880620000000    -0.0351908  
C811     C      0.902550000000     0.378010000000     0.897380000000    -0.0350983  
C812     C      0.855650000000     0.358050000000     0.842010000000     0.049155   
C813     C      0.830540000000     0.367660000000     0.833100000000    -0.0915322  
C814     C      0.815430000000     0.352060000000     0.815570000000     0.0718256  
C815     C      0.849150000000     0.317440000000     0.815710000000     0.0717493  
C816     C      0.864750000000     0.332490000000     0.833270000000    -0.0914451  
C817     C      0.927930000000     0.067310000000     0.938460000000     0.0717072  
C818     C      0.912290000000     0.082360000000     0.920940000000    -0.09154    
C819     C      0.921330000000     0.107950000000     0.912230000000     0.0490957  
C820     C      0.946420000000     0.117600000000     0.921150000000    -0.0913589  
C821     C      0.961550000000     0.102030000000     0.938710000000     0.0716942  
C822     C      0.904520000000     0.124630000000     0.894220000000    -0.0062216  
C823     C      0.876230000000     0.126250000000     0.897510000000    -0.0351741  
C824     C      0.860410000000     0.142050000000     0.880700000000    -0.0353425  
C825     C      0.872490000000     0.156620000000     0.860200000000    -0.00613327 
C826     C      0.900770000000     0.155010000000     0.856910000000    -0.0352564  
C827     C      0.916590000000     0.139210000000     0.873720000000    -0.0352228  
C828     C      0.855670000000     0.173280000000     0.842170000000     0.0490491  
C829     C      0.830580000000     0.163620000000     0.833260000000    -0.0913683  
C830     C      0.815450000000     0.179170000000     0.815690000000     0.0716496  
C831     C      0.849070000000     0.213890000000     0.815890000000     0.0717064  
C832     C      0.864700000000     0.198860000000     0.833440000000    -0.0915133  
C833     C      0.678080000000     0.317390000000     0.815950000000     0.0717361  
C834     C      0.662510000000     0.332440000000     0.833540000000    -0.0914689  
C835     C      0.671620000000     0.358010000000     0.842260000000     0.0489909  
C836     C      0.696710000000     0.367620000000     0.833300000000    -0.0914102  
C837     C      0.711790000000     0.352020000000     0.815730000000     0.0716401  
C838     C      0.654850000000     0.374720000000     0.860300000000    -0.00612131 
C839     C      0.640780000000     0.362310000000     0.880900000000    -0.0352254  
C840     C      0.624770000000     0.377990000000     0.897650000000    -0.0352217  
C841     C      0.622460000000     0.406470000000     0.894190000000    -0.00614879 
C842     C      0.636550000000     0.418880000000     0.873590000000    -0.0352466  
C843     C      0.652550000000     0.403200000000     0.856840000000    -0.0352539  
C844     C      0.605650000000     0.423170000000     0.912190000000     0.0490325  
C845     C      0.580550000000     0.413550000000     0.921120000000    -0.0913774  
C846     C      0.565430000000     0.429130000000     0.938660000000     0.0717274  
C847     C      0.599120000000     0.463780000000     0.938490000000     0.0717201  
C848     C      0.614730000000     0.448730000000     0.920930000000    -0.091425   
C849     C      0.958620000000     0.426120000000     0.561070000000     0.072784   
C850     C      0.943930000000     0.410930000000     0.579220000000    -0.091822   
C851     C      0.919110000000     0.420820000000     0.588560000000     0.0496225  
C852     C      0.909520000000     0.445910000000     0.579110000000    -0.091786   
C853     C      0.924730000000     0.460580000000     0.560980000000     0.0727589  
C854     C      0.903390000000     0.405160000000     0.608190000000    -0.0061794  
C855     C      0.916650000000     0.392220000000     0.629000000000    -0.0350885  
C856     C      0.901870000000     0.377640000000     0.647550000000    -0.0350315  
C857     C      0.873490000000     0.375670000000     0.645750000000    -0.00628378 
C858     C      0.860230000000     0.388610000000     0.624940000000    -0.0350152  
C859     C      0.875010000000     0.403190000000     0.606370000000    -0.0351702  
C860     C      0.857780000000     0.360030000000     0.665390000000     0.0496704  
C861     C      0.867360000000     0.334960000000     0.674870000000    -0.0918776  
C862     C      0.852170000000     0.320330000000     0.693060000000     0.072798   
C863     C      0.818300000000     0.354810000000     0.692950000000     0.0726939  
C864     C      0.832970000000     0.369950000000     0.674740000000    -0.0917859  
Co41     Co     0.973420000000     0.015540000000     0.502080000000     0.841706   
Co42     Co     0.553600000000     0.015570000000     0.502090000000     0.841059   
Co43     Co     0.513530000000     0.474960000000     0.502150000000     0.837752   
Co44     Co     0.513490000000     0.056160000000     0.502180000000     0.837872   
Co45     Co     0.763510000000     0.306160000000     0.752110000000     0.837758   
Co46     Co     0.763500000000     0.224950000000     0.752170000000     0.838169   
Co47     Co     0.803590000000     0.265560000000     0.752180000000     0.841752   
Co48     Co     0.723420000000     0.265570000000     0.752260000000     0.842115   
H481     H      0.549090000000     0.113200000000     0.554800000000     0.0309317  
H482     H      0.574670000000     0.139140000000     0.586540000000     0.0528509  
H483     H      0.636690000000     0.076790000000     0.585730000000     0.0528555  
H484     H      0.610450000000     0.051080000000     0.554370000000     0.0310037  
H485     H      0.616400000000     0.165440000000     0.590930000000     0.0381259  
H486     H      0.642130000000     0.191050000000     0.623230000000     0.0380214  
H487     H      0.660460000000     0.115680000000     0.663540000000     0.0380908  
H488     H      0.634740000000     0.090080000000     0.631230000000     0.0379653  
H489     H      0.640210000000     0.204340000000     0.668740000000     0.0529612  
H490     H      0.666500000000     0.230050000000     0.700070000000     0.0310724  
H491     H      0.727820000000     0.167920000000     0.699600000000     0.030895   
H492     H      0.702200000000     0.141980000000     0.667900000000     0.0529073  
H493     H      0.546090000000     0.110350000000     0.945140000000     0.0312872  
H494     H      0.572390000000     0.137060000000     0.914500000000     0.052668   
H495     H      0.634010000000     0.074310000000     0.914680000000     0.0527018  
H496     H      0.607080000000     0.047880000000     0.944920000000     0.0313727  
H497     H      0.614400000000     0.163340000000     0.913540000000     0.03832    
H498     H      0.642270000000     0.190700000000     0.884290000000     0.0377983  
H499     H      0.662640000000     0.117840000000     0.840880000000     0.0382462  
H500     H      0.634770000000     0.090480000000     0.870120000000     0.0376951  
H501     H      0.643040000000     0.206880000000     0.839740000000     0.0526902  
H502     H      0.669970000000     0.233300000000     0.809490000000     0.0314255  
H503     H      0.730930000000     0.170810000000     0.809250000000     0.0311927  
H504     H      0.704650000000     0.144110000000     0.839900000000     0.0525818  
H505     H      0.727810000000     0.363200000000     0.699580000000     0.0309324  
H506     H      0.702190000000     0.389150000000     0.667890000000     0.0529067  
H507     H      0.640190000000     0.326780000000     0.668750000000     0.0529464  
H508     H      0.666480000000     0.301070000000     0.700070000000     0.0310946  
H509     H      0.660440000000     0.415440000000     0.663560000000     0.0381575  
H510     H      0.634720000000     0.441060000000     0.631250000000     0.038027   
H511     H      0.616400000000     0.365710000000     0.590930000000     0.0381717  
H512     H      0.642110000000     0.340090000000     0.623230000000     0.0380252  
H513     H      0.636680000000     0.454360000000     0.585750000000     0.053002   
H514     H      0.610450000000     0.480070000000     0.554390000000     0.0310697  
H515     H      0.549100000000     0.417950000000     0.554800000000     0.0308992  
H516     H      0.574670000000     0.392010000000     0.586530000000     0.0529428  
H517     H      0.916670000000     0.050890000000     0.554560000000     0.031028   
H518     H      0.890650000000     0.076370000000     0.586260000000     0.0530709  
H519     H      0.951930000000     0.139460000000     0.585970000000     0.0532139  
H520     H      0.977740000000     0.113280000000     0.554600000000     0.0311211  
H521     H      0.864250000000     0.118230000000     0.590680000000     0.0383287  
H522     H      0.838470000000     0.143700000000     0.623040000000     0.0383204  
H523     H      0.912730000000     0.162630000000     0.663800000000     0.0383842  
H524     H      0.938510000000     0.137150000000     0.631430000000     0.038362   
H525     H      0.825040000000     0.141460000000     0.668510000000     0.0531028  
H526     H      0.799220000000     0.167710000000     0.699830000000     0.0309971  
H527     H      0.860340000000     0.230060000000     0.699800000000     0.0311377  
H528     H      0.886350000000     0.204520000000     0.668150000000     0.0531699  
H529     H      0.920000000000     0.483280000000     0.944820000000     0.0315154  
H530     H      0.893090000000     0.456870000000     0.914530000000     0.052891   
H531     H      0.954760000000     0.394170000000     0.914310000000     0.052955   
H532     H      0.981010000000     0.420850000000     0.945000000000     0.0314563  
H533     H      0.892340000000     0.440750000000     0.869960000000     0.0380541  
H534     H      0.864490000000     0.413390000000     0.840700000000     0.0385533  
H535     H      0.884930000000     0.340500000000     0.884030000000     0.038104   
H536     H      0.912780000000     0.367850000000     0.913300000000     0.0386043  
H537     H      0.822500000000     0.387090000000     0.839700000000     0.0529168  
H538     H      0.796190000000     0.360390000000     0.809090000000     0.0312753  
H539     H      0.857180000000     0.297910000000     0.809260000000     0.0314465  
H540     H      0.884140000000     0.324360000000     0.839470000000     0.0529105  
H541     H      0.920020000000     0.047680000000     0.944770000000     0.0313617  
H542     H      0.893250000000     0.073880000000     0.914180000000     0.0526749  
H543     H      0.954120000000     0.137360000000     0.915090000000     0.0529591  
H544     H      0.980680000000     0.110470000000     0.945330000000     0.0314708  
H545     H      0.866340000000     0.115650000000     0.913360000000     0.0384808  
H546     H      0.838750000000     0.143160000000     0.884000000000     0.0380343  
H547     H      0.910660000000     0.165610000000     0.841060000000     0.0384758  
H548     H      0.938260000000     0.138090000000     0.870410000000     0.0379967  
H549     H      0.822880000000     0.143860000000     0.839340000000     0.052813   
H550     H      0.796320000000     0.170720000000     0.809070000000     0.0312917  
H551     H      0.856970000000     0.233520000000     0.809570000000     0.0313856  
H552     H      0.883740000000     0.207360000000     0.840180000000     0.0527171  
H553     H      0.670030000000     0.297870000000     0.809520000000     0.0313922  
H554     H      0.643140000000     0.324310000000     0.839790000000     0.0527623  
H555     H      0.704760000000     0.387060000000     0.839880000000     0.0527826  
H556     H      0.731010000000     0.360350000000     0.809210000000     0.0312769  
H557     H      0.642410000000     0.340480000000     0.884330000000     0.0378099  
H558     H      0.614560000000     0.367840000000     0.913580000000     0.0384137  
H559     H      0.634890000000     0.440700000000     0.870160000000     0.0377896  
H560     H      0.662760000000     0.413340000000     0.840910000000     0.0383524  
H561     H      0.572520000000     0.394100000000     0.914520000000     0.0527764  
H562     H      0.546200000000     0.420790000000     0.945140000000     0.03133    
H563     H      0.607140000000     0.483310000000     0.944940000000     0.0314736  
H564     H      0.634110000000     0.456880000000     0.914720000000     0.0527815  
H565     H      0.977750000000     0.417690000000     0.554430000000     0.0310529  
H566     H      0.951910000000     0.391440000000     0.585740000000     0.0532151  
H567     H      0.890580000000     0.454470000000     0.586020000000     0.053186   
H568     H      0.916610000000     0.480020000000     0.554390000000     0.0311562  
H569     H      0.938460000000     0.393720000000     0.631190000000     0.0383833  
H570     H      0.912670000000     0.368250000000     0.663560000000     0.0384118  
H571     H      0.838420000000     0.387100000000     0.622740000000     0.0383135  
H572     H      0.864210000000     0.412580000000     0.590370000000     0.0384244  
H573     H      0.886280000000     0.326380000000     0.667960000000     0.0532547  
H574     H      0.860290000000     0.300910000000     0.699660000000     0.0311396  
H575     H      0.799180000000     0.363260000000     0.699600000000     0.0309703  
H576     H      0.824990000000     0.389440000000     0.668210000000     0.0531422  
N81      N      0.577770000000     0.080150000000     0.552260000000    -0.190664   
N82      N      0.699160000000     0.200970000000     0.702150000000    -0.190595   
N83      N      0.574710000000     0.077240000000     0.947540000000    -0.189564   
N84      N      0.702330000000     0.203920000000     0.806860000000    -0.189592   
N85      N      0.699150000000     0.330150000000     0.702150000000    -0.190689   
N86      N      0.577780000000     0.450990000000     0.552270000000    -0.190619   
N87      N      0.949200000000     0.080100000000     0.552260000000    -0.190557   
N88      N      0.827780000000     0.200880000000     0.702140000000    -0.190653   
N89      N      0.952380000000     0.453940000000     0.947430000000    -0.189573   
N90      N      0.824800000000     0.327280000000     0.806660000000    -0.189622   
N91      N      0.952230000000     0.077210000000     0.947570000000    -0.189436   
N92      N      0.824770000000     0.203980000000     0.806800000000    -0.189649   
N93      N      0.702390000000     0.327240000000     0.806850000000    -0.18957    
N94      N      0.574790000000     0.453920000000     0.947550000000    -0.189561   
N95      N      0.949180000000     0.450840000000     0.552090000000    -0.190594   
N96      N      0.827740000000     0.330100000000     0.701960000000    -0.190665   
O171     O      0.955220000000     0.488960000000     0.526740000000    -0.364386   
O172     O      0.571780000000     0.042100000000     0.526830000000    -0.364128   
O173     O      0.539960000000     0.456760000000     0.526900000000    -0.363853   
O174     O      0.987030000000     0.074360000000     0.526890000000    -0.363466   
O175     O      0.571780000000     0.489050000000     0.526830000000    -0.36418    
O176     O      0.955240000000     0.042040000000     0.526830000000    -0.364381   
O177     O      0.539940000000     0.074370000000     0.526910000000    -0.363865   
O178     O      0.987050000000     0.456680000000     0.526800000000    -0.363311   
O179     O      0.957340000000     0.040010000000     0.974300000000    -0.367979   
O180     O      0.569680000000     0.491110000000     0.974300000000    -0.368012   
O181     O      0.989140000000     0.458710000000     0.974390000000    -0.366992   
O182     O      0.537910000000     0.072440000000     0.974460000000    -0.367212   
O183     O      0.569650000000     0.040050000000     0.974290000000    -0.367857   
O184     O      0.957400000000     0.491080000000     0.974230000000    -0.367971   
O185     O      0.989040000000     0.072440000000     0.974480000000    -0.3669     
O186     O      0.537980000000     0.458700000000     0.974450000000    -0.367193   
O187     O      0.513510000000     0.015550000000     0.512820000000    -0.591352   
O188     O      0.789930000000     0.324350000000     0.727350000000    -0.36385    
O189     O      0.737030000000     0.206750000000     0.727470000000    -0.363962   
O190     O      0.821780000000     0.238990000000     0.727500000000    -0.364152   
O191     O      0.705200000000     0.292090000000     0.727570000000    -0.364448   
O192     O      0.789950000000     0.206700000000     0.727480000000    -0.363798   
O193     O      0.737020000000     0.324380000000     0.727430000000    -0.363732   
O194     O      0.705210000000     0.239030000000     0.727570000000    -0.364399   
O195     O      0.821750000000     0.292060000000     0.727410000000    -0.364212   
O196     O      0.739140000000     0.322440000000     0.779870000000    -0.367516   
O197     O      0.787960000000     0.208720000000     0.779880000000    -0.367626   
O198     O      0.819690000000     0.290070000000     0.779940000000    -0.368369   
O199     O      0.707380000000     0.241100000000     0.780090000000    -0.368274   
O200     O      0.739100000000     0.208700000000     0.779910000000    -0.367766   
O201     O      0.787970000000     0.322460000000     0.779790000000    -0.367501   
O202     O      0.707420000000     0.290040000000     0.780090000000    -0.368406   
O203     O      0.819660000000     0.241130000000     0.780020000000    -0.368372   
O204     O      0.763490000000     0.265550000000     0.741490000000    -0.591299   
C865     C      0.964170000000     0.965850000000     0.034690000000     0.400877   
C866     C      0.562800000000     0.565200000000     0.034810000000     0.400678   
C867     C      0.562810000000     0.965950000000     0.034820000000     0.4008     
C868     C      0.964180000000     0.565150000000     0.034810000000     0.400747   
C869     C      0.966710000000     0.562730000000     0.465750000000     0.394692   
C870     C      0.560320000000     0.968400000000     0.465740000000     0.394956   
C871     C      0.966810000000     0.968400000000     0.465660000000     0.395063   
C872     C      0.560260000000     0.562760000000     0.465740000000     0.394616   
C873     C      0.812780000000     0.815160000000     0.219420000000     0.400896   
C874     C      0.714160000000     0.715930000000     0.219580000000     0.400788   
C875     C      0.812810000000     0.715870000000     0.219550000000     0.400835   
C876     C      0.714140000000     0.815190000000     0.219560000000     0.401142   
C877     C      0.716810000000     0.812750000000     0.288630000000     0.394911   
C878     C      0.810300000000     0.718430000000     0.288590000000     0.394787   
C879     C      0.810330000000     0.812780000000     0.288490000000     0.394825   
C880     C      0.716770000000     0.718400000000     0.288640000000     0.395023   
C881     C      0.568310000000     0.604840000000     0.061310000000     0.0724196  
C882     C      0.583000000000     0.619990000000     0.079500000000    -0.0917414  
C883     C      0.607810000000     0.610090000000     0.088830000000     0.0494042  
C884     C      0.617410000000     0.585030000000     0.079330000000    -0.0918121  
C885     C      0.602230000000     0.570410000000     0.061120000000     0.0724796  
C886     C      0.623520000000     0.625710000000     0.108490000000    -0.00633162 
C887     C      0.625730000000     0.654360000000     0.106800000000    -0.0352904  
C888     C      0.640460000000     0.669040000000     0.125330000000    -0.0352456  
C889     C      0.653330000000     0.655410000000     0.145970000000    -0.00630434 
C890     C      0.651130000000     0.626760000000     0.147660000000    -0.0352951  
C891     C      0.636390000000     0.612090000000     0.129130000000    -0.03521    
C892     C      0.669070000000     0.671040000000     0.165620000000     0.049421   
C893     C      0.659490000000     0.696100000000     0.175130000000    -0.0918335  
C894     C      0.674700000000     0.710720000000     0.193310000000     0.0725634  
C895     C      0.708610000000     0.676280000000     0.193100000000     0.0725023  
C896     C      0.693890000000     0.661120000000     0.174940000000    -0.0918262  
C897     C      0.565330000000     0.602020000000     0.438650000000     0.071592   
C898     C      0.580430000000     0.617620000000     0.421090000000    -0.091552   
C899     C      0.605530000000     0.608010000000     0.412170000000     0.0490213  
C900     C      0.614630000000     0.582450000000     0.420900000000    -0.0915659  
C901     C      0.599040000000     0.567400000000     0.438460000000     0.0717101  
C902     C      0.622320000000     0.624720000000     0.394150000000    -0.00624483 
C903     C      0.624620000000     0.653190000000     0.397600000000    -0.0352112  
C904     C      0.640630000000     0.668880000000     0.380860000000    -0.0353905  
C905     C      0.654730000000     0.656470000000     0.360270000000    -0.006199   
C906     C      0.652420000000     0.627990000000     0.356810000000    -0.0352878  
C907     C      0.636410000000     0.612300000000     0.373560000000    -0.0353448  
C908     C      0.671510000000     0.673170000000     0.342250000000     0.0488946  
C909     C      0.662420000000     0.698740000000     0.333520000000    -0.0914503  
C910     C      0.678000000000     0.713780000000     0.315940000000     0.0716144  
C911     C      0.711710000000     0.679150000000     0.315760000000     0.0715433  
C912     C      0.696610000000     0.663560000000     0.333310000000    -0.0914074  
C913     C      0.708590000000     0.854840000000     0.193090000000     0.0725615  
C914     C      0.693870000000     0.870000000000     0.174920000000    -0.0918078  
C915     C      0.669050000000     0.860090000000     0.165620000000     0.0495056  
C916     C      0.659470000000     0.835030000000     0.175130000000    -0.0918527  
C917     C      0.674680000000     0.820410000000     0.193310000000     0.0725818  
C918     C      0.653320000000     0.875720000000     0.145980000000    -0.00634171 
C919     C      0.651110000000     0.904370000000     0.147680000000    -0.0352275  
C920     C      0.636380000000     0.919050000000     0.129150000000    -0.0352002  
C921     C      0.623520000000     0.905430000000     0.108490000000    -0.00630534 
C922     C      0.625720000000     0.876780000000     0.106800000000    -0.0353325  
C923     C      0.640450000000     0.862100000000     0.125330000000    -0.0351768  
C924     C      0.607810000000     0.921060000000     0.088840000000     0.0494739  
C925     C      0.617410000000     0.946130000000     0.079340000000    -0.0919264  
C926     C      0.602230000000     0.960740000000     0.061140000000     0.0726853  
C927     C      0.568320000000     0.926310000000     0.061310000000     0.0725424  
C928     C      0.583000000000     0.911150000000     0.079500000000    -0.0918595  
C929     C      0.924780000000     0.570330000000     0.061170000000     0.0727365  
C930     C      0.909580000000     0.584960000000     0.079340000000    -0.0918031  
C931     C      0.919150000000     0.610050000000     0.088800000000     0.0495914  
C932     C      0.943950000000     0.619970000000     0.079450000000    -0.0917588  
C933     C      0.958630000000     0.604830000000     0.061250000000     0.0725941  
C934     C      0.903440000000     0.625670000000     0.108460000000    -0.00622024 
C935     C      0.875050000000     0.627630000000     0.106660000000    -0.0351816  
C936     C      0.860270000000     0.642220000000     0.125220000000    -0.0351315  
C937     C      0.873550000000     0.655190000000     0.146010000000    -0.00621026 
C938     C      0.901940000000     0.653220000000     0.147810000000    -0.0351174  
C939     C      0.916710000000     0.638640000000     0.129260000000    -0.0351047  
C940     C      0.857840000000     0.670850000000     0.165640000000     0.0495254  
C941     C      0.833030000000     0.660960000000     0.175010000000    -0.0916763  
C942     C      0.818350000000     0.676140000000     0.193180000000     0.0726356  
C943     C      0.852220000000     0.710610000000     0.193230000000     0.0727587  
C944     C      0.867420000000     0.695950000000     0.175080000000    -0.0917838  
C945     C      0.928050000000     0.963780000000     0.438340000000     0.0717863  
C946     C      0.912480000000     0.948740000000     0.420750000000    -0.0913288  
C947     C      0.921600000000     0.923190000000     0.411990000000     0.0490764  
C948     C      0.946700000000     0.913600000000     0.420930000000    -0.091344   
C949     C      0.961780000000     0.929180000000     0.438500000000     0.0717902  
C950     C      0.904830000000     0.906500000000     0.393950000000    -0.00609774 
C951     C      0.890720000000     0.918920000000     0.373370000000    -0.0351743  
C952     C      0.874720000000     0.903240000000     0.356610000000    -0.0351887  
C953     C      0.872440000000     0.874750000000     0.360040000000    -0.00610052 
C954     C      0.886550000000     0.862330000000     0.380620000000    -0.0351983  
C955     C      0.902550000000     0.878010000000     0.397380000000    -0.0351579  
C956     C      0.855650000000     0.858050000000     0.342020000000     0.0491129  
C957     C      0.830540000000     0.867660000000     0.333100000000    -0.0915019  
C958     C      0.815430000000     0.852060000000     0.315570000000     0.0718212  
C959     C      0.849150000000     0.817440000000     0.315720000000     0.0717399  
C960     C      0.864750000000     0.832490000000     0.333270000000    -0.091435   
C961     C      0.927930000000     0.567310000000     0.438460000000     0.0717482  
C962     C      0.912290000000     0.582360000000     0.420940000000    -0.0915454  
C963     C      0.921330000000     0.607950000000     0.412230000000     0.0490378  
C964     C      0.946420000000     0.617600000000     0.421150000000    -0.091263   
C965     C      0.961550000000     0.602030000000     0.438710000000     0.07156    
C966     C      0.904520000000     0.624630000000     0.394220000000    -0.00618838 
C967     C      0.876230000000     0.626250000000     0.397510000000    -0.0352429  
C968     C      0.860410000000     0.642050000000     0.380700000000    -0.0353217  
C969     C      0.872490000000     0.656620000000     0.360190000000    -0.0061548  
C970     C      0.900770000000     0.655010000000     0.356910000000    -0.0352375  
C971     C      0.916590000000     0.639210000000     0.373720000000    -0.0352406  
C972     C      0.855670000000     0.673280000000     0.342170000000     0.0489955  
C973     C      0.830580000000     0.663630000000     0.333260000000    -0.0912377  
C974     C      0.815450000000     0.679170000000     0.315680000000     0.0715425  
C975     C      0.849070000000     0.713890000000     0.315890000000     0.0717611  
C976     C      0.864700000000     0.698870000000     0.333440000000    -0.0915276  
C977     C      0.678080000000     0.817390000000     0.315950000000     0.0717339  
C978     C      0.662510000000     0.832440000000     0.333540000000    -0.0914486  
C979     C      0.671620000000     0.858010000000     0.342260000000     0.0489967  
C980     C      0.696710000000     0.867620000000     0.333300000000    -0.0914179  
C981     C      0.711790000000     0.852020000000     0.315730000000     0.0716493  
C982     C      0.654850000000     0.874720000000     0.360290000000    -0.00614915 
C983     C      0.640780000000     0.862310000000     0.380900000000    -0.035228   
C984     C      0.624770000000     0.877990000000     0.397650000000    -0.0352454  
C985     C      0.622460000000     0.906470000000     0.394190000000    -0.00615002 
C986     C      0.636550000000     0.918880000000     0.373590000000    -0.0352466  
C987     C      0.652550000000     0.903200000000     0.356840000000    -0.0352293  
C988     C      0.605650000000     0.923170000000     0.412190000000     0.0490199  
C989     C      0.580550000000     0.913550000000     0.421120000000    -0.091394   
C990     C      0.565430000000     0.929130000000     0.438660000000     0.0716994  
C991     C      0.599120000000     0.963780000000     0.438490000000     0.0717049  
C992     C      0.614730000000     0.948730000000     0.420930000000    -0.0914236  
C993     C      0.958620000000     0.926120000000     0.061070000000     0.0726455  
C994     C      0.943930000000     0.910940000000     0.079230000000    -0.0917677  
C995     C      0.919110000000     0.920820000000     0.088560000000     0.0496329  
C996     C      0.909520000000     0.945910000000     0.079110000000    -0.0918296  
C997     C      0.924730000000     0.960580000000     0.060980000000     0.0727988  
C998     C      0.903390000000     0.905160000000     0.108190000000    -0.00618975 
C999     C      0.916650000000     0.892220000000     0.129000000000    -0.0350668  
C1000    C      0.901870000000     0.877640000000     0.147550000000    -0.0350445  
C1001    C      0.873490000000     0.875670000000     0.145750000000    -0.00625741 
C1002    C      0.860230000000     0.888600000000     0.124940000000    -0.0350367  
C1003    C      0.875010000000     0.903190000000     0.106370000000    -0.0351735  
C1004    C      0.857780000000     0.860040000000     0.165390000000     0.0496194  
C1005    C      0.867360000000     0.834960000000     0.174870000000    -0.0918029  
C1006    C      0.852170000000     0.820330000000     0.193060000000     0.0727595  
C1007    C      0.818300000000     0.854810000000     0.192950000000     0.0726956  
C1008    C      0.832970000000     0.869950000000     0.174740000000    -0.0917645  
Co49     Co     0.973420000000     0.515530000000     0.002080000000     0.841431   
Co50     Co     0.553600000000     0.515570000000     0.002090000000     0.840835   
Co51     Co     0.513530000000     0.974960000000     0.002150000000     0.837534   
Co52     Co     0.513490000000     0.556160000000     0.002170000000     0.837021   
Co53     Co     0.763510000000     0.806160000000     0.252110000000     0.83787    
Co54     Co     0.763500000000     0.724960000000     0.252160000000     0.838033   
Co55     Co     0.803590000000     0.765560000000     0.252180000000     0.841808   
Co56     Co     0.723420000000     0.765570000000     0.252270000000     0.841959   
H577     H      0.549090000000     0.613200000000     0.054810000000     0.0308755  
H578     H      0.574670000000     0.639140000000     0.086540000000     0.052824   
H579     H      0.636690000000     0.576790000000     0.085720000000     0.0528955  
H580     H      0.610450000000     0.551090000000     0.054370000000     0.0310363  
H581     H      0.616400000000     0.665440000000     0.090930000000     0.0380897  
H582     H      0.642130000000     0.691050000000     0.123230000000     0.0379847  
H583     H      0.660460000000     0.615690000000     0.163540000000     0.0381521  
H584     H      0.634740000000     0.590080000000     0.131230000000     0.0380206  
H585     H      0.640210000000     0.704340000000     0.168740000000     0.0529408  
H586     H      0.666500000000     0.730050000000     0.200070000000     0.0310858  
H587     H      0.727820000000     0.667920000000     0.199590000000     0.0309028  
H588     H      0.702200000000     0.641980000000     0.167900000000     0.0529206  
H589     H      0.546090000000     0.610350000000     0.445140000000     0.0312192  
H590     H      0.572390000000     0.637060000000     0.414510000000     0.0526533  
H591     H      0.634010000000     0.574310000000     0.414680000000     0.0527145  
H592     H      0.607080000000     0.547880000000     0.444920000000     0.0314057  
H593     H      0.614400000000     0.663340000000     0.413540000000     0.0382459  
H594     H      0.642270000000     0.690700000000     0.384290000000     0.0377563  
H595     H      0.662640000000     0.617840000000     0.340880000000     0.0382839  
H596     H      0.634770000000     0.590480000000     0.370120000000     0.0377451  
H597     H      0.643040000000     0.706880000000     0.339740000000     0.0526855  
H598     H      0.669970000000     0.733300000000     0.309490000000     0.0314232  
H599     H      0.730930000000     0.670810000000     0.309250000000     0.0312397  
H600     H      0.704650000000     0.644110000000     0.339900000000     0.0525798  
H601     H      0.727810000000     0.863200000000     0.199580000000     0.0309343  
H602     H      0.702190000000     0.889150000000     0.167890000000     0.052927   
H603     H      0.640190000000     0.826780000000     0.168750000000     0.0529624  
H604     H      0.666480000000     0.801070000000     0.200070000000     0.0310882  
H605     H      0.660440000000     0.915440000000     0.163560000000     0.0381973  
H606     H      0.634720000000     0.941060000000     0.131250000000     0.0380881  
H607     H      0.616400000000     0.865710000000     0.090930000000     0.0381351  
H608     H      0.642110000000     0.840090000000     0.123230000000     0.0379854  
H609     H      0.636680000000     0.954360000000     0.085750000000     0.053026   
H610     H      0.610450000000     0.980070000000     0.054390000000     0.0310972  
H611     H      0.549100000000     0.917950000000     0.054800000000     0.0308671  
H612     H      0.574670000000     0.892010000000     0.086530000000     0.0529097  
H613     H      0.916670000000     0.550890000000     0.054560000000     0.0310591  
H614     H      0.890650000000     0.576370000000     0.086260000000     0.0531004  
H615     H      0.951930000000     0.639460000000     0.085970000000     0.0531667  
H616     H      0.977740000000     0.613280000000     0.054600000000     0.0310587  
H617     H      0.864250000000     0.618230000000     0.090680000000     0.0383196  
H618     H      0.838470000000     0.643710000000     0.123040000000     0.0382932  
H619     H      0.912730000000     0.662630000000     0.163800000000     0.0383969  
H620     H      0.938510000000     0.637150000000     0.131430000000     0.0383836  
H621     H      0.825040000000     0.641460000000     0.168500000000     0.0531003  
H622     H      0.799220000000     0.667710000000     0.199830000000     0.0310203  
H623     H      0.860340000000     0.730060000000     0.199800000000     0.0311371  
H624     H      0.886350000000     0.704520000000     0.168150000000     0.0531474  
H625     H      0.920000000000     0.983280000000     0.444820000000     0.0315503  
H626     H      0.893090000000     0.956870000000     0.414530000000     0.0528994  
H627     H      0.954760000000     0.894170000000     0.414310000000     0.05288    
H628     H      0.981010000000     0.920850000000     0.445000000000     0.0313971  
H629     H      0.892340000000     0.940750000000     0.369960000000     0.0381128  
H630     H      0.864490000000     0.913390000000     0.340700000000     0.0385938  
H631     H      0.884930000000     0.840500000000     0.384030000000     0.0380586  
H632     H      0.912780000000     0.867860000000     0.413300000000     0.0385509  
H633     H      0.822500000000     0.887090000000     0.339700000000     0.0529176  
H634     H      0.796190000000     0.860390000000     0.309080000000     0.0312957  
H635     H      0.857180000000     0.797920000000     0.309260000000     0.0314441  
H636     H      0.884140000000     0.824360000000     0.339470000000     0.0529009  
H637     H      0.920020000000     0.547680000000     0.444770000000     0.0313802  
H638     H      0.893250000000     0.573880000000     0.414180000000     0.0527007  
H639     H      0.954120000000     0.637370000000     0.415090000000     0.0528593  
H640     H      0.980680000000     0.610470000000     0.445330000000     0.0314326  
H641     H      0.866340000000     0.615650000000     0.413350000000     0.0384622  
H642     H      0.838750000000     0.643160000000     0.384000000000     0.038001   
H643     H      0.910660000000     0.665610000000     0.341060000000     0.0384825  
H644     H      0.938260000000     0.638090000000     0.370410000000     0.0380183  
H645     H      0.822880000000     0.643860000000     0.339340000000     0.0527722  
H646     H      0.796320000000     0.670720000000     0.309070000000     0.0313308  
H647     H      0.856970000000     0.733520000000     0.309570000000     0.0313795  
H648     H      0.883740000000     0.707360000000     0.340190000000     0.0527086  
H649     H      0.670030000000     0.797870000000     0.309520000000     0.031391   
H650     H      0.643140000000     0.824300000000     0.339790000000     0.0527374  
H651     H      0.704760000000     0.887060000000     0.339880000000     0.0527937  
H652     H      0.731010000000     0.860350000000     0.309210000000     0.0312815  
H653     H      0.642410000000     0.840480000000     0.384330000000     0.0377637  
H654     H      0.614560000000     0.867840000000     0.413580000000     0.0383434  
H655     H      0.634890000000     0.940700000000     0.370160000000     0.0378471  
H656     H      0.662760000000     0.913340000000     0.340910000000     0.0383875  
H657     H      0.572520000000     0.894100000000     0.414520000000     0.052746   
H658     H      0.546200000000     0.920790000000     0.445140000000     0.0312682  
H659     H      0.607140000000     0.983310000000     0.444940000000     0.0315136  
H660     H      0.634110000000     0.956880000000     0.414720000000     0.0527958  
H661     H      0.977750000000     0.917690000000     0.054430000000     0.0310278  
H662     H      0.951910000000     0.891440000000     0.085740000000     0.0531419  
H663     H      0.890580000000     0.954470000000     0.086010000000     0.0532393  
H664     H      0.916610000000     0.980020000000     0.054390000000     0.0311859  
H665     H      0.938460000000     0.893720000000     0.131200000000     0.0384014  
H666     H      0.912670000000     0.868250000000     0.163560000000     0.0384313  
H667     H      0.838420000000     0.887100000000     0.122740000000     0.0383005  
H668     H      0.864210000000     0.912580000000     0.090370000000     0.0383844  
H669     H      0.886280000000     0.826380000000     0.167950000000     0.0532132  
H670     H      0.860290000000     0.800910000000     0.199670000000     0.0311528  
H671     H      0.799180000000     0.863260000000     0.199590000000     0.0309746  
H672     H      0.824990000000     0.889440000000     0.168210000000     0.0531617  
N97      N      0.577770000000     0.580150000000     0.052260000000    -0.190566   
N98      N      0.699160000000     0.700970000000     0.202150000000    -0.190548   
N99      N      0.574710000000     0.577240000000     0.447540000000    -0.189599   
N100     N      0.702330000000     0.703930000000     0.306850000000    -0.189618   
N101     N      0.699150000000     0.830150000000     0.202150000000    -0.190748   
N102     N      0.577780000000     0.951000000000     0.052270000000    -0.190643   
N103     N      0.949200000000     0.580100000000     0.052260000000    -0.190554   
N104     N      0.827780000000     0.700880000000     0.202140000000    -0.190645   
N105     N      0.952380000000     0.953940000000     0.447430000000    -0.189587   
N106     N      0.824800000000     0.827280000000     0.306670000000    -0.18956    
N107     N      0.952230000000     0.577200000000     0.447570000000    -0.189542   
N108     N      0.824770000000     0.703990000000     0.306800000000    -0.189591   
N109     N      0.702390000000     0.827240000000     0.306850000000    -0.189613   
N110     N      0.574790000000     0.953920000000     0.447550000000    -0.189589   
N111     N      0.949180000000     0.950850000000     0.052090000000    -0.190562   
N112     N      0.827740000000     0.830100000000     0.201960000000    -0.190651   
O205     O      0.955220000000     0.988960000000     0.026740000000    -0.364102   
O206     O      0.571780000000     0.542100000000     0.026830000000    -0.364107   
O207     O      0.539960000000     0.956760000000     0.026900000000    -0.363887   
O208     O      0.987030000000     0.574360000000     0.026890000000    -0.363408   
O209     O      0.571780000000     0.989050000000     0.026830000000    -0.363886   
O210     O      0.955240000000     0.542040000000     0.026830000000    -0.364274   
O211     O      0.539940000000     0.574380000000     0.026900000000    -0.363756   
O212     O      0.987050000000     0.956680000000     0.026800000000    -0.363403   
O213     O      0.957340000000     0.540010000000     0.474300000000    -0.368297   
O214     O      0.569680000000     0.991110000000     0.474300000000    -0.368188   
O215     O      0.989140000000     0.958710000000     0.474390000000    -0.367456   
O216     O      0.537910000000     0.572440000000     0.474460000000    -0.36765    
O217     O      0.569650000000     0.540050000000     0.474290000000    -0.368285   
O218     O      0.957400000000     0.991080000000     0.474240000000    -0.368092   
O219     O      0.989040000000     0.572440000000     0.474480000000    -0.367254   
O220     O      0.537980000000     0.958700000000     0.474450000000    -0.367702   
O221     O      0.513510000000     0.515560000000     0.012820000000    -0.59088    
O222     O      0.789930000000     0.824350000000     0.227350000000    -0.363825   
O223     O      0.737030000000     0.706750000000     0.227470000000    -0.363904   
O224     O      0.821780000000     0.738990000000     0.227500000000    -0.364171   
O225     O      0.705200000000     0.792090000000     0.227560000000    -0.364373   
O226     O      0.789950000000     0.706700000000     0.227480000000    -0.363798   
O227     O      0.737020000000     0.824370000000     0.227430000000    -0.363866   
O228     O      0.705210000000     0.739040000000     0.227560000000    -0.364198   
O229     O      0.821750000000     0.792060000000     0.227420000000    -0.364218   
O230     O      0.739140000000     0.822440000000     0.279870000000    -0.367595   
O231     O      0.787960000000     0.708720000000     0.279880000000    -0.367514   
O232     O      0.819690000000     0.790070000000     0.279940000000    -0.368314   
O233     O      0.707380000000     0.741100000000     0.280090000000    -0.368454   
O234     O      0.739100000000     0.708700000000     0.279910000000    -0.367753   
O235     O      0.787970000000     0.822460000000     0.279790000000    -0.367482   
O236     O      0.707420000000     0.790050000000     0.280090000000    -0.368586   
O237     O      0.819660000000     0.741140000000     0.280020000000    -0.368328   
O238     O      0.763490000000     0.765550000000     0.241490000000    -0.591356   
C1009    C      0.964170000000     0.965850000000     0.534700000000     0.400908   
C1010    C      0.562800000000     0.565200000000     0.534820000000     0.400787   
C1011    C      0.562810000000     0.965950000000     0.534820000000     0.400904   
C1012    C      0.964180000000     0.565150000000     0.534810000000     0.400879   
C1013    C      0.966710000000     0.562730000000     0.965760000000     0.394729   
C1014    C      0.560320000000     0.968400000000     0.965740000000     0.394879   
C1015    C      0.966810000000     0.968400000000     0.965660000000     0.395044   
C1016    C      0.560260000000     0.562760000000     0.965740000000     0.394563   
C1017    C      0.812780000000     0.815160000000     0.719420000000     0.400958   
C1018    C      0.714160000000     0.715930000000     0.719580000000     0.400733   
C1019    C      0.812810000000     0.715870000000     0.719550000000     0.400815   
C1020    C      0.714140000000     0.815190000000     0.719560000000     0.401108   
C1021    C      0.716810000000     0.812750000000     0.788630000000     0.394893   
C1022    C      0.810300000000     0.718430000000     0.788600000000     0.394723   
C1023    C      0.810330000000     0.812780000000     0.788490000000     0.394921   
C1024    C      0.716770000000     0.718400000000     0.788650000000     0.394844   
C1025    C      0.568310000000     0.604840000000     0.561310000000     0.0724793  
C1026    C      0.583000000000     0.619990000000     0.579500000000    -0.0917184  
C1027    C      0.607810000000     0.610090000000     0.588830000000     0.0494081  
C1028    C      0.617410000000     0.585030000000     0.579320000000    -0.0917591  
C1029    C      0.602230000000     0.570410000000     0.561120000000     0.0725547  
C1030    C      0.623520000000     0.625710000000     0.608490000000    -0.00634578 
C1031    C      0.625730000000     0.654360000000     0.606810000000    -0.0352158  
C1032    C      0.640460000000     0.669040000000     0.625330000000    -0.0352334  
C1033    C      0.653330000000     0.655410000000     0.645980000000    -0.00632616 
C1034    C      0.651130000000     0.626760000000     0.647660000000    -0.0352667  
C1035    C      0.636390000000     0.612090000000     0.629140000000    -0.0352039  
C1036    C      0.669070000000     0.671040000000     0.665620000000     0.0494424  
C1037    C      0.659490000000     0.696100000000     0.675130000000    -0.0918379  
C1038    C      0.674700000000     0.710720000000     0.693310000000     0.0725639  
C1039    C      0.708610000000     0.676280000000     0.693100000000     0.0725015  
C1040    C      0.693890000000     0.661120000000     0.674940000000    -0.0918268  
C1041    C      0.565330000000     0.602020000000     0.938650000000     0.0716328  
C1042    C      0.580430000000     0.617620000000     0.921090000000    -0.0914972  
C1043    C      0.605530000000     0.608010000000     0.912170000000     0.049031   
C1044    C      0.614630000000     0.582450000000     0.920900000000    -0.0915319  
C1045    C      0.599040000000     0.567400000000     0.938460000000     0.0717547  
C1046    C      0.622320000000     0.624720000000     0.894150000000    -0.00621758 
C1047    C      0.624620000000     0.653190000000     0.897600000000    -0.0351975  
C1048    C      0.640630000000     0.668880000000     0.880860000000    -0.035364   
C1049    C      0.654730000000     0.656470000000     0.860270000000    -0.00619769 
C1050    C      0.652420000000     0.627990000000     0.856810000000    -0.0352751  
C1051    C      0.636410000000     0.612300000000     0.873560000000    -0.0353443  
C1052    C      0.671510000000     0.673170000000     0.842250000000     0.0489159  
C1053    C      0.662420000000     0.698740000000     0.833520000000    -0.0914595  
C1054    C      0.678000000000     0.713780000000     0.815940000000     0.0716459  
C1055    C      0.711710000000     0.679150000000     0.815760000000     0.0715759  
C1056    C      0.696610000000     0.663560000000     0.833310000000    -0.091415   
C1057    C      0.708590000000     0.854840000000     0.693090000000     0.0725641  
C1058    C      0.693870000000     0.870000000000     0.674920000000    -0.0918041  
C1059    C      0.669050000000     0.860090000000     0.665620000000     0.0495097  
C1060    C      0.659470000000     0.835030000000     0.675130000000    -0.0918502  
C1061    C      0.674680000000     0.820410000000     0.693310000000     0.0725795  
C1062    C      0.653320000000     0.875720000000     0.645980000000    -0.00633128 
C1063    C      0.651110000000     0.904370000000     0.647680000000    -0.0352243  
C1064    C      0.636380000000     0.919050000000     0.629150000000    -0.0351979  
C1065    C      0.623520000000     0.905430000000     0.608500000000    -0.00628876 
C1066    C      0.625720000000     0.876780000000     0.606810000000    -0.0352709  
C1067    C      0.640450000000     0.862100000000     0.625330000000    -0.035174   
C1068    C      0.607810000000     0.921060000000     0.588840000000     0.04949    
C1069    C      0.617410000000     0.946130000000     0.579340000000    -0.0919041  
C1070    C      0.602230000000     0.960740000000     0.561140000000     0.0727319  
C1071    C      0.568320000000     0.926310000000     0.561310000000     0.0725897  
C1072    C      0.583000000000     0.911150000000     0.579500000000    -0.0918398  
C1073    C      0.924780000000     0.570330000000     0.561170000000     0.0727814  
C1074    C      0.909580000000     0.584960000000     0.579340000000    -0.0917716  
C1075    C      0.919150000000     0.610050000000     0.588810000000     0.0496106  
C1076    C      0.943950000000     0.619970000000     0.579460000000    -0.0917286  
C1077    C      0.958630000000     0.604830000000     0.561250000000     0.0726152  
C1078    C      0.903440000000     0.625670000000     0.608460000000    -0.00623984 
C1079    C      0.875050000000     0.627630000000     0.606670000000    -0.0350988  
C1080    C      0.860270000000     0.642220000000     0.625220000000    -0.0351342  
C1081    C      0.873550000000     0.655190000000     0.646010000000    -0.00620102 
C1082    C      0.901940000000     0.653220000000     0.647810000000    -0.0351208  
C1083    C      0.916710000000     0.638640000000     0.629260000000    -0.0350844  
C1084    C      0.857840000000     0.670850000000     0.665650000000     0.0495832  
C1085    C      0.833030000000     0.660960000000     0.675010000000    -0.0917364  
C1086    C      0.818350000000     0.676140000000     0.693180000000     0.0726598  
C1087    C      0.852220000000     0.710610000000     0.693230000000     0.0727771  
C1088    C      0.867420000000     0.695950000000     0.675080000000    -0.0918168  
C1089    C      0.928050000000     0.963780000000     0.938340000000     0.0718426  
C1090    C      0.912480000000     0.948740000000     0.920750000000    -0.0913103  
C1091    C      0.921600000000     0.923190000000     0.911990000000     0.0491168  
C1092    C      0.946700000000     0.913600000000     0.920930000000    -0.0913263  
C1093    C      0.961780000000     0.929180000000     0.938500000000     0.0718409  
C1094    C      0.904830000000     0.906500000000     0.893960000000    -0.00610157 
C1095    C      0.890720000000     0.918920000000     0.873370000000    -0.0351626  
C1096    C      0.874720000000     0.903240000000     0.856610000000    -0.03517    
C1097    C      0.872440000000     0.874750000000     0.860030000000    -0.0061181  
C1098    C      0.886550000000     0.862330000000     0.880620000000    -0.0351682  
C1099    C      0.902550000000     0.878010000000     0.897380000000    -0.0351292  
C1100    C      0.855650000000     0.858050000000     0.842010000000     0.0491639  
C1101    C      0.830540000000     0.867660000000     0.833100000000    -0.0915285  
C1102    C      0.815430000000     0.852060000000     0.815570000000     0.0718335  
C1103    C      0.849150000000     0.817440000000     0.815710000000     0.0717438  
C1104    C      0.864750000000     0.832490000000     0.833270000000    -0.0914407  
C1105    C      0.927930000000     0.567310000000     0.938460000000     0.0717885  
C1106    C      0.912290000000     0.582360000000     0.920940000000    -0.0915214  
C1107    C      0.921330000000     0.607950000000     0.912230000000     0.0490696  
C1108    C      0.946420000000     0.617600000000     0.921150000000    -0.0912363  
C1109    C      0.961550000000     0.602030000000     0.938710000000     0.0716007  
C1110    C      0.904520000000     0.624630000000     0.894220000000    -0.00619282 
C1111    C      0.876230000000     0.626250000000     0.897510000000    -0.0351699  
C1112    C      0.860410000000     0.642050000000     0.880700000000    -0.0353319  
C1113    C      0.872490000000     0.656620000000     0.860200000000    -0.00611743 
C1114    C      0.900770000000     0.655010000000     0.856910000000    -0.0352497  
C1115    C      0.916590000000     0.639210000000     0.873720000000    -0.0352189  
C1116    C      0.855670000000     0.673280000000     0.842170000000     0.0490146  
C1117    C      0.830580000000     0.663630000000     0.833260000000    -0.0912648  
C1118    C      0.815450000000     0.679170000000     0.815690000000     0.0715633  
C1119    C      0.849070000000     0.713890000000     0.815890000000     0.0717851  
C1120    C      0.864700000000     0.698870000000     0.833440000000    -0.091555   
C1121    C      0.678080000000     0.817390000000     0.815950000000     0.0717363  
C1122    C      0.662510000000     0.832440000000     0.833540000000    -0.0914392  
C1123    C      0.671620000000     0.858010000000     0.842260000000     0.0489902  
C1124    C      0.696710000000     0.867620000000     0.833300000000    -0.0914061  
C1125    C      0.711790000000     0.852020000000     0.815730000000     0.0716526  
C1126    C      0.654850000000     0.874720000000     0.860300000000    -0.00611133 
C1127    C      0.640780000000     0.862310000000     0.880900000000    -0.035221   
C1128    C      0.624770000000     0.877990000000     0.897650000000    -0.0352189  
C1129    C      0.622460000000     0.906470000000     0.894190000000    -0.00613528 
C1130    C      0.636550000000     0.918880000000     0.873590000000    -0.0352328  
C1131    C      0.652550000000     0.903200000000     0.856840000000    -0.0352387  
C1132    C      0.605650000000     0.923170000000     0.912190000000     0.0490471  
C1133    C      0.580550000000     0.913550000000     0.921120000000    -0.0913701  
C1134    C      0.565430000000     0.929130000000     0.938660000000     0.0717484  
C1135    C      0.599120000000     0.963780000000     0.938490000000     0.0717533  
C1136    C      0.614730000000     0.948730000000     0.920930000000    -0.0913972  
C1137    C      0.958620000000     0.926120000000     0.561070000000     0.0727232  
C1138    C      0.943930000000     0.910940000000     0.579220000000    -0.0917308  
C1139    C      0.919110000000     0.920820000000     0.588560000000     0.0496198  
C1140    C      0.909520000000     0.945910000000     0.579110000000    -0.0917731  
C1141    C      0.924730000000     0.960580000000     0.560980000000     0.0728452  
C1142    C      0.903390000000     0.905160000000     0.608190000000    -0.00615956 
C1143    C      0.916650000000     0.892220000000     0.629000000000    -0.0350791  
C1144    C      0.901870000000     0.877640000000     0.647550000000    -0.035025   
C1145    C      0.873490000000     0.875670000000     0.645750000000    -0.00626385 
C1146    C      0.860230000000     0.888600000000     0.624940000000    -0.0350101  
C1147    C      0.875010000000     0.903190000000     0.606370000000    -0.035166   
C1148    C      0.857780000000     0.860040000000     0.665390000000     0.0496469  
C1149    C      0.867360000000     0.834960000000     0.674870000000    -0.0918386  
C1150    C      0.852170000000     0.820330000000     0.693060000000     0.0727873  
C1151    C      0.818300000000     0.854810000000     0.692950000000     0.0727006  
C1152    C      0.832970000000     0.869950000000     0.674740000000    -0.0917713  
Co57     Co     0.973420000000     0.515530000000     0.502080000000     0.842458   
Co58     Co     0.553600000000     0.515570000000     0.502090000000     0.841789   
Co59     Co     0.513530000000     0.974960000000     0.502150000000     0.838481   
Co60     Co     0.513490000000     0.556160000000     0.502180000000     0.837921   
Co61     Co     0.763510000000     0.806160000000     0.752110000000     0.83786    
Co62     Co     0.763500000000     0.724960000000     0.752170000000     0.837983   
Co63     Co     0.803590000000     0.765560000000     0.752180000000     0.841746   
Co64     Co     0.723420000000     0.765570000000     0.752260000000     0.842106   
H673     H      0.549090000000     0.613200000000     0.554800000000     0.0309443  
H674     H      0.574670000000     0.639140000000     0.586540000000     0.0528552  
H675     H      0.636690000000     0.576790000000     0.585730000000     0.0529092  
H676     H      0.610450000000     0.551090000000     0.554370000000     0.031087   
H677     H      0.616400000000     0.665440000000     0.590930000000     0.0381256  
H678     H      0.642130000000     0.691050000000     0.623230000000     0.0380199  
H679     H      0.660460000000     0.615690000000     0.663540000000     0.0381443  
H680     H      0.634740000000     0.590080000000     0.631230000000     0.0380167  
H681     H      0.640210000000     0.704340000000     0.668740000000     0.0529483  
H682     H      0.666500000000     0.730050000000     0.700070000000     0.0310804  
H683     H      0.727820000000     0.667920000000     0.699600000000     0.0309149  
H684     H      0.702200000000     0.641980000000     0.667900000000     0.0529342  
H685     H      0.546090000000     0.610350000000     0.945140000000     0.0312914  
H686     H      0.572390000000     0.637060000000     0.914500000000     0.0526734  
H687     H      0.634010000000     0.574310000000     0.914680000000     0.0527587  
H688     H      0.607080000000     0.547880000000     0.944920000000     0.0314708  
H689     H      0.614400000000     0.663340000000     0.913540000000     0.0383205  
H690     H      0.642270000000     0.690700000000     0.884290000000     0.0377976  
H691     H      0.662640000000     0.617840000000     0.840880000000     0.0382815  
H692     H      0.634770000000     0.590480000000     0.870120000000     0.0377491  
H693     H      0.643040000000     0.706880000000     0.839740000000     0.0526974  
H694     H      0.669970000000     0.733300000000     0.809490000000     0.0314121  
H695     H      0.730930000000     0.670810000000     0.809250000000     0.0312289  
H696     H      0.704650000000     0.644110000000     0.839900000000     0.0525991  
H697     H      0.727810000000     0.863200000000     0.699580000000     0.0309357  
H698     H      0.702190000000     0.889150000000     0.667890000000     0.0529389  
H699     H      0.640190000000     0.826780000000     0.668750000000     0.0529673  
H700     H      0.666480000000     0.801070000000     0.700070000000     0.031083   
H701     H      0.660440000000     0.915440000000     0.663560000000     0.0381952  
H702     H      0.634720000000     0.941060000000     0.631250000000     0.0380875  
H703     H      0.616400000000     0.865710000000     0.590930000000     0.0381729  
H704     H      0.642110000000     0.840090000000     0.623230000000     0.0380226  
H705     H      0.636680000000     0.954360000000     0.585750000000     0.0530666  
H706     H      0.610450000000     0.980070000000     0.554390000000     0.0311554  
H707     H      0.549100000000     0.917950000000     0.554800000000     0.0309239  
H708     H      0.574670000000     0.892010000000     0.586530000000     0.0529409  
H709     H      0.916670000000     0.550890000000     0.554560000000     0.0311168  
H710     H      0.890650000000     0.576370000000     0.586260000000     0.053129   
H711     H      0.951930000000     0.639460000000     0.585970000000     0.0532159  
H712     H      0.977740000000     0.613280000000     0.554600000000     0.0311247  
H713     H      0.864250000000     0.618230000000     0.590680000000     0.0383538  
H714     H      0.838470000000     0.643710000000     0.623040000000     0.0383355  
H715     H      0.912730000000     0.662630000000     0.663800000000     0.038395   
H716     H      0.938510000000     0.637150000000     0.631430000000     0.0383801  
H717     H      0.825040000000     0.641460000000     0.668510000000     0.0531322  
H718     H      0.799220000000     0.667710000000     0.699830000000     0.0310136  
H719     H      0.860340000000     0.730060000000     0.699800000000     0.0311377  
H720     H      0.886350000000     0.704520000000     0.668150000000     0.0531697  
H721     H      0.920000000000     0.983280000000     0.944820000000     0.0316196  
H722     H      0.893090000000     0.956870000000     0.914530000000     0.0529477  
H723     H      0.954760000000     0.894170000000     0.914310000000     0.0529177  
H724     H      0.981010000000     0.920850000000     0.945000000000     0.0314597  
H725     H      0.892340000000     0.940750000000     0.869960000000     0.0381142  
H726     H      0.864490000000     0.913390000000     0.840700000000     0.0385896  
H727     H      0.884930000000     0.840500000000     0.884030000000     0.0380996  
H728     H      0.912780000000     0.867860000000     0.913300000000     0.0386204  
H729     H      0.822500000000     0.887090000000     0.839700000000     0.0529435  
H730     H      0.796190000000     0.860390000000     0.809090000000     0.0312889  
H731     H      0.857180000000     0.797920000000     0.809260000000     0.0314398  
H732     H      0.884140000000     0.824360000000     0.839470000000     0.0529129  
H733     H      0.920020000000     0.547680000000     0.944770000000     0.0314503  
H734     H      0.893250000000     0.573880000000     0.914180000000     0.0527377  
H735     H      0.954120000000     0.637370000000     0.915090000000     0.0529059  
H736     H      0.980680000000     0.610470000000     0.945330000000     0.0315057  
H737     H      0.866340000000     0.615650000000     0.913360000000     0.0385085  
H738     H      0.838750000000     0.643160000000     0.884000000000     0.0380521  
H739     H      0.910660000000     0.665610000000     0.841060000000     0.0384855  
H740     H      0.938260000000     0.638090000000     0.870410000000     0.0380171  
H741     H      0.822880000000     0.643860000000     0.839340000000     0.0527882  
H742     H      0.796320000000     0.670720000000     0.809070000000     0.0313331  
H743     H      0.856970000000     0.733520000000     0.809570000000     0.031372   
H744     H      0.883740000000     0.707360000000     0.840180000000     0.0527413  
H745     H      0.670030000000     0.797870000000     0.809520000000     0.0313926  
H746     H      0.643140000000     0.824300000000     0.839790000000     0.0527441  
H747     H      0.704760000000     0.887060000000     0.839880000000     0.0528088  
H748     H      0.731010000000     0.860350000000     0.809210000000     0.0312863  
H749     H      0.642410000000     0.840480000000     0.884330000000     0.0378099  
H750     H      0.614560000000     0.867840000000     0.913580000000     0.038414   
H751     H      0.634890000000     0.940700000000     0.870160000000     0.0378478  
H752     H      0.662760000000     0.913340000000     0.840910000000     0.0383909  
H753     H      0.572520000000     0.894100000000     0.914520000000     0.0527823  
H754     H      0.546200000000     0.920790000000     0.945140000000     0.0313331  
H755     H      0.607140000000     0.983310000000     0.944940000000     0.0315782  
H756     H      0.634110000000     0.956880000000     0.914720000000     0.0528422  
H757     H      0.977750000000     0.917690000000     0.554430000000     0.0310771  
H758     H      0.951910000000     0.891440000000     0.585740000000     0.0531684  
H759     H      0.890580000000     0.954470000000     0.586020000000     0.0532526  
H760     H      0.916610000000     0.980020000000     0.554390000000     0.0312434  
H761     H      0.938460000000     0.893720000000     0.631190000000     0.0384045  
H762     H      0.912670000000     0.868250000000     0.663560000000     0.0384254  
H763     H      0.838420000000     0.887100000000     0.622740000000     0.0383341  
H764     H      0.864210000000     0.912580000000     0.590370000000     0.038452   
H765     H      0.886280000000     0.826380000000     0.667960000000     0.0532455  
H766     H      0.860290000000     0.800910000000     0.699660000000     0.0311427  
H767     H      0.799180000000     0.863260000000     0.699600000000     0.0309855  
H768     H      0.824990000000     0.889440000000     0.668210000000     0.0531699  
N113     N      0.577770000000     0.580150000000     0.552260000000    -0.190623   
N114     N      0.699160000000     0.700970000000     0.702150000000    -0.190543   
N115     N      0.574710000000     0.577240000000     0.947540000000    -0.189554   
N116     N      0.702330000000     0.703930000000     0.806860000000    -0.189622   
N117     N      0.699150000000     0.830150000000     0.702150000000    -0.190747   
N118     N      0.577780000000     0.951000000000     0.552270000000    -0.190638   
N119     N      0.949200000000     0.580100000000     0.552260000000    -0.190547   
N120     N      0.827780000000     0.700880000000     0.702140000000    -0.190647   
N121     N      0.952380000000     0.953940000000     0.947430000000    -0.189549   
N122     N      0.824800000000     0.827280000000     0.806660000000    -0.189619   
N123     N      0.952230000000     0.577200000000     0.947570000000    -0.189451   
N124     N      0.824770000000     0.703990000000     0.806800000000    -0.189641   
N125     N      0.702390000000     0.827240000000     0.806850000000    -0.189608   
N126     N      0.574790000000     0.953920000000     0.947550000000    -0.189542   
N127     N      0.949180000000     0.950850000000     0.552090000000    -0.190607   
N128     N      0.827740000000     0.830100000000     0.701960000000    -0.190661   
O239     O      0.955220000000     0.988960000000     0.526740000000    -0.364022   
O240     O      0.571780000000     0.542100000000     0.526830000000    -0.364067   
O241     O      0.539960000000     0.956760000000     0.526900000000    -0.363882   
O242     O      0.987030000000     0.574360000000     0.526890000000    -0.363463   
O243     O      0.571780000000     0.989050000000     0.526830000000    -0.363882   
O244     O      0.955240000000     0.542040000000     0.526830000000    -0.364284   
O245     O      0.539940000000     0.574380000000     0.526910000000    -0.363752   
O246     O      0.987050000000     0.956680000000     0.526800000000    -0.363326   
O247     O      0.957340000000     0.540010000000     0.974300000000    -0.367881   
O248     O      0.569680000000     0.991110000000     0.974300000000    -0.367699   
O249     O      0.989140000000     0.958710000000     0.974390000000    -0.366995   
O250     O      0.537910000000     0.572440000000     0.974460000000    -0.367218   
O251     O      0.569650000000     0.540050000000     0.974290000000    -0.367805   
O252     O      0.957400000000     0.991080000000     0.974230000000    -0.367596   
O253     O      0.989040000000     0.572440000000     0.974480000000    -0.366911   
O254     O      0.537980000000     0.958700000000     0.974450000000    -0.367209   
O255     O      0.513510000000     0.515560000000     0.512820000000    -0.591221   
O256     O      0.789930000000     0.824350000000     0.727350000000    -0.363851   
O257     O      0.737030000000     0.706750000000     0.727470000000    -0.363819   
O258     O      0.821780000000     0.738990000000     0.727500000000    -0.364146   
O259     O      0.705200000000     0.792090000000     0.727570000000    -0.364459   
O260     O      0.789950000000     0.706700000000     0.727480000000    -0.36372    
O261     O      0.737020000000     0.824370000000     0.727430000000    -0.363855   
O262     O      0.705210000000     0.739040000000     0.727570000000    -0.36427    
O263     O      0.821750000000     0.792060000000     0.727410000000    -0.364213   
O264     O      0.739140000000     0.822440000000     0.779870000000    -0.367582   
O265     O      0.787960000000     0.708720000000     0.779880000000    -0.367512   
O266     O      0.819690000000     0.790070000000     0.779940000000    -0.368354   
O267     O      0.707380000000     0.741100000000     0.780090000000    -0.368298   
O268     O      0.739100000000     0.708700000000     0.779910000000    -0.367718   
O269     O      0.787970000000     0.822460000000     0.779790000000    -0.367508   
O270     O      0.707420000000     0.790050000000     0.780090000000    -0.368522   
O271     O      0.819660000000     0.741140000000     0.780020000000    -0.368261   
O272     O      0.763490000000     0.765550000000     0.741490000000    -0.591358   


