data_structure

_audit_creation_method RASPA-1.0
_audit_creation_date 2023-6-4
_audit_author_name 'Poobodin Mano'

_cell_length_a    40.2312
_cell_length_b    39.54
_cell_length_c    40.9441
_cell_angle_alpha 87.135
_cell_angle_beta  93.819
_cell_angle_gamma 120.434
_cell_volume      56022.5

_symmetry_cell_setting          triclinic
_symmetry_space_group_name_Hall 'P 1'
_symmetry_space_group_name_H-M  'P 1'
_symmetry_Int_Tables_number     1

_symmetry_equiv_pos_as_xyz 'x,y,z'

loop_
_atom_site_label
_atom_site_type_symbol
_atom_site_fract_x
_atom_site_fract_y
_atom_site_fract_z
_atom_site_charge
Br1      Br     0.530960000000     0.613040000000     0.905930000000    -0.209742   
Br2      Br     0.618130000000     0.634110000000     0.408760000000    -0.240265   
Br3      Br     0.472350000000     0.613120000000     0.461140000000    -0.209231   
Br4      Br     0.422240000000     0.069040000000     0.628230000000    -0.252389   
Br5      Br     0.539950000000     0.160000000000     0.950190000000    -0.247669   
Br6      Br     0.437330000000     0.051980000000     0.168600000000    -0.217972   
Br7      Br     0.463360000000     0.617410000000     0.955530000000    -0.214204   
Br8      Br     0.553240000000     0.167560000000     0.133610000000    -0.228227   
Br9      Br     0.633840000000     0.138280000000     0.457100000000    -0.229699   
Br10     Br     0.123990000000     0.666020000000     0.633850000000    -0.211861   
Br11     Br     0.918580000000     0.468500000000     0.602570000000    -0.246205   
Br12     Br     0.206810000000     0.606510000000     0.479580000000    -0.244255   
Br13     Br     0.012760000000     0.622210000000     0.635070000000    -0.199897   
Br14     Br     0.074690000000     0.629400000000     0.145450000000    -0.230778   
Br15     Br     0.946390000000     0.404110000000     0.955140000000    -0.241389   
Br16     Br     0.184110000000     0.655970000000     0.009420000000    -0.246555   
Br17     Br     0.899860000000     0.536220000000     0.109600000000    -0.241356   
Br18     Br     0.071860000000     0.451940000000     0.991510000000    -0.277329   
Br19     Br     0.595450000000     0.695850000000     0.581930000000    -0.25191    
Br20     Br     0.409420000000     0.498420000000     0.480840000000    -0.215309   
Br21     Br     0.644160000000     0.053820000000     0.483900000000    -0.232635   
Br22     Br     0.141640000000     0.051160000000     0.443960000000    -0.257947   
Br23     Br     0.055410000000     0.939440000000     0.561990000000    -0.218679   
Br24     Br     0.063290000000     0.187540000000     0.505140000000    -0.22374    
Br25     Br     0.970230000000     0.050800000000     0.641340000000    -0.247568   
Br26     Br     0.952800000000     0.959610000000     0.133680000000    -0.213758   
Br27     Br     0.885350000000     0.984980000000     0.966070000000    -0.216586   
Br28     Br     0.151620000000     0.172700000000     0.090190000000    -0.216996   
Br29     Br     0.960150000000     0.112450000000     0.118040000000    -0.245104   
Br30     Br     0.142410000000     0.066490000000     0.079480000000    -0.190887   
Br31     Br     0.049390000000     0.957390000000     0.112770000000    -0.205192   
Br32     Br     0.991570000000     0.143930000000     0.926810000000    -0.23837    
C1       C      0.996770000000     0.116260000000     0.001720000000     0.483819   
C2       C      0.952760000000     0.965370000000     0.988000000000     0.474758   
C3       C      0.024980000000     0.023410000000     0.947510000000     0.447336   
C4       C      0.947860000000     0.044020000000     0.068150000000     0.499813   
C5       C      0.027100000000     0.040030000000     0.105630000000     0.505764   
C6       C      0.102470000000     0.066480000000     0.009350000000     0.449179   
C7       C      0.097480000000     0.144890000000     0.022820000000     0.497263   
C8       C      0.980820000000     0.948710000000     0.062550000000     0.40166    
C9       C      0.006800000000     0.032420000000     0.448560000000     0.454585   
C10      C      0.075080000000     0.137310000000     0.565010000000     0.468513   
C11      C      0.955710000000     0.041650000000     0.503430000000     0.45722    
C12      C      0.121830000000     0.136190000000     0.510070000000     0.460176   
C13      C      0.121660000000     0.045050000000     0.520910000000     0.479797   
C14      C      0.961250000000     0.985120000000     0.569930000000     0.455256   
C15      C      0.048910000000     0.980420000000     0.493390000000     0.46718    
C16      C      0.037940000000     0.042400000000     0.609380000000     0.467491   
C17      C      0.939740000000     0.461190000000     0.006090000000     0.48821    
C18      C      0.057140000000     0.650310000000     0.043190000000     0.408028   
C19      C      0.962580000000     0.567200000000     0.053450000000     0.503296   
C20      C      0.012800000000     0.540240000000     0.956690000000     0.458867   
C21      C      0.095640000000     0.541700000000     0.994460000000     0.471301   
C22      C      0.012660000000     0.542160000000     0.118400000000     0.49838    
C23      C      0.996890000000     0.442990000000     0.062910000000     0.48313    
C24      C      0.114740000000     0.606200000000     0.059040000000     0.468825   
C25      C      0.975900000000     0.452230000000     0.541300000000     0.481914   
C26      C      0.075240000000     0.650570000000     0.530480000000     0.411232   
C27      C      0.980420000000     0.535540000000     0.553050000000     0.466407   
C28      C      0.049370000000     0.553740000000     0.460530000000     0.517371   
C29      C      0.123710000000     0.532060000000     0.497120000000     0.540819   
C30      C      0.050260000000     0.568780000000     0.619720000000     0.466381   
C31      C      0.069420000000     0.467710000000     0.570260000000     0.461253   
C32      C      0.138820000000     0.622710000000     0.574980000000     0.494197   
C33      C      0.437090000000     0.041890000000     0.024200000000     0.457701   
C34      C      0.497880000000     0.953630000000     0.038520000000     0.479773   
C35      C      0.512280000000     0.072020000000     0.979110000000     0.47328    
C36      C      0.425090000000     0.962510000000     0.106520000000     0.38144    
C37      C      0.509410000000     0.046110000000     0.142470000000     0.50981    
C38      C      0.593500000000     0.115870000000     0.036020000000     0.461762   
C39      C      0.480030000000     0.098320000000     0.094230000000     0.459337   
C40      C      0.590050000000     0.029650000000     0.067840000000     0.489741   
C41      C      0.456300000000     0.043000000000     0.530920000000     0.469193   
C42      C      0.530600000000     0.955470000000     0.542320000000     0.463391   
C43      C      0.520120000000     0.063360000000     0.482790000000     0.458363   
C44      C      0.476470000000     0.947810000000     0.597990000000     0.45491    
C45      C      0.529540000000     0.038350000000     0.643380000000     0.463102   
C46      C      0.609420000000     0.112570000000     0.531350000000     0.467275   
C47      C      0.507570000000     0.095030000000     0.603560000000     0.461737   
C48      C      0.619150000000     0.045030000000     0.558960000000     0.483821   
C49      C      0.464530000000     0.473320000000     0.983430000000     0.465637   
C50      C      0.548880000000     0.638720000000     0.982690000000     0.409665   
C51      C      0.431600000000     0.523220000000     0.039700000000     0.397812   
C52      C      0.541890000000     0.544970000000     0.945950000000     0.472252   
C53      C      0.621410000000     0.565960000000     0.004160000000     0.455265   
C54      C      0.512890000000     0.548540000000     0.100560000000     0.478381   
C55      C      0.503770000000     0.454030000000     0.056360000000     0.457059   
C56      C      0.601110000000     0.637360000000     0.050830000000     0.473734   
C57      C      0.471260000000     0.469570000000     0.485880000000     0.493401   
C58      C      0.557650000000     0.630850000000     0.486520000000     0.504481   
C59      C      0.462710000000     0.528890000000     0.555390000000     0.471148   
C60      C      0.579100000000     0.548010000000     0.444490000000     0.508022   
C61      C      0.627320000000     0.533180000000     0.518160000000     0.50032    
C62      C      0.548450000000     0.545620000000     0.600600000000     0.463534   
C63      C      0.501620000000     0.436910000000     0.560690000000     0.423399   
C64      C      0.618190000000     0.633170000000     0.556600000000     0.486021   
C65      C      0.536060000000     0.568520000000     0.857560000000    -0.129862   
C66      C      0.559030000000     0.519690000000     0.651680000000     0.0799386  
C67      C      0.553780000000     0.576810000000     0.650350000000     0.0791575  
C68      C      0.559350000000     0.518400000000     0.685970000000    -0.0923778  
C69      C      0.574620000000     0.534060000000     0.760040000000    -0.0355898  
C70      C      0.571070000000     0.532490000000     0.793980000000    -0.030478   
C71      C      0.551370000000     0.543280000000     0.738720000000    -0.00414292 
C72      C      0.553970000000     0.576370000000     0.684430000000    -0.0918333  
C73      C      0.544030000000     0.539880000000     0.807320000000    -0.0118654  
C74      C      0.545190000000     0.513210000000     0.864210000000    -0.104308   
C75      C      0.520170000000     0.548120000000     0.785840000000    -0.0301975  
C76      C      0.544260000000     0.515250000000     0.898060000000     0.0839971  
C77      C      0.535280000000     0.570060000000     0.891630000000     0.194512   
C78      C      0.523840000000     0.549860000000     0.752030000000    -0.0346129  
C79      C      0.555520000000     0.546260000000     0.702670000000     0.052035   
C80      C      0.541460000000     0.540280000000     0.843450000000     0.0714244  
C81      C      0.581910000000     0.579560000000     0.357990000000    -0.131776   
C82      C      0.508990000000     0.511600000000     0.149450000000     0.0796425  
C83      C      0.536870000000     0.580600000000     0.151630000000     0.0779243  
C84      C      0.515420000000     0.509440000000     0.183280000000    -0.0926928  
C85      C      0.552400000000     0.517660000000     0.252410000000    -0.0349699  
C86      C      0.559700000000     0.517490000000     0.286350000000    -0.0303972  
C87      C      0.539220000000     0.542040000000     0.237910000000    -0.00427528 
C88      C      0.543650000000     0.579480000000     0.185450000000    -0.0927885  
C89      C      0.554010000000     0.541730000000     0.306480000000    -0.011443   
C90      C      0.554080000000     0.509660000000     0.361290000000    -0.103768   
C91      C      0.539930000000     0.565330000000     0.292010000000    -0.0297422  
C92      C      0.561290000000     0.512270000000     0.395260000000     0.0877503  
C93      C      0.588930000000     0.581510000000     0.391930000000     0.197783   
C94      C      0.532670000000     0.565510000000     0.258210000000    -0.0341096  
C95      C      0.532760000000     0.543610000000     0.201780000000     0.0521864  
C96      C      0.563480000000     0.543480000000     0.342350000000     0.0733131  
C97      C      0.519020000000     0.695710000000     0.466260000000    -0.130539   
C98      C      0.515150000000     0.909450000000     0.500280000000     0.0804973  
C99      C      0.539730000000     0.901110000000     0.552390000000     0.0810043  
C100     C      0.518300000000     0.878920000000     0.487850000000    -0.0931579  
C101     C      0.572260000000     0.826370000000     0.507010000000    -0.0336616  
C102     C      0.577270000000     0.796010000000     0.497320000000    -0.029014   
C103     C      0.540230000000     0.829350000000     0.495040000000    -0.00414974 
C104     C      0.542580000000     0.870140000000     0.540990000000    -0.0945822  
C105     C      0.550790000000     0.768110000000     0.474880000000    -0.0101904  
C106     C      0.588290000000     0.733460000000     0.470090000000    -0.101439   
C107     C      0.520130000000     0.772580000000     0.461230000000    -0.0298779  
C108     C      0.589210000000     0.698600000000     0.472620000000     0.096311   
C109     C      0.520810000000     0.661310000000     0.468270000000     0.195731   
C110     C      0.514760000000     0.802690000000     0.471360000000    -0.0339366  
C111     C      0.533310000000     0.859630000000     0.508040000000     0.0537698  
C112     C      0.552840000000     0.732300000000     0.469110000000     0.0745405  
C113     C      0.463850000000     0.152270000000     0.627040000000    -0.131684   
C114     C      0.520930000000     0.389250000000     0.562280000000     0.0762547  
C115     C      0.471670000000     0.380750000000     0.596320000000     0.074777   
C116     C      0.518490000000     0.354680000000     0.574800000000    -0.0957069  
C117     C      0.519960000000     0.296260000000     0.629060000000    -0.0366637  
C118     C      0.520770000000     0.261690000000     0.635830000000    -0.031708   
C119     C      0.488900000000     0.295370000000     0.610640000000    -0.00621819 
C120     C      0.467850000000     0.345370000000     0.608880000000    -0.0938629  
C121     C      0.490940000000     0.225600000000     0.623570000000    -0.0126347  
C122     C      0.531750000000     0.194690000000     0.620510000000    -0.104283   
C123     C      0.458730000000     0.224630000000     0.606770000000    -0.0312105  
C124     C      0.535130000000     0.161880000000     0.616270000000     0.0783238  
C125     C      0.468010000000     0.119620000000     0.622580000000     0.191395   
C126     C      0.457680000000     0.259220000000     0.600500000000    -0.0361326  
C127     C      0.491710000000     0.332360000000     0.598220000000     0.0508824  
C128     C      0.495570000000     0.190400000000     0.624630000000     0.0687501  
C129     C      0.532870000000     0.115180000000     0.895420000000    -0.13228    
C130     C      0.566740000000     0.069280000000     0.691990000000     0.0779986  
C131     C      0.499250000000     0.044630000000     0.688780000000     0.0786558  
C132     C      0.569030000000     0.079920000000     0.724480000000    -0.0939562  
C133     C      0.554710000000     0.065840000000     0.797660000000    -0.0361253  
C134     C      0.551660000000     0.067900000000     0.831170000000    -0.0308866  
C135     C      0.536500000000     0.079640000000     0.774810000000    -0.00467082 
C136     C      0.500620000000     0.055450000000     0.720980000000    -0.0915827  
C137     C      0.530820000000     0.084290000000     0.842540000000    -0.0134897  
C138     C      0.508450000000     0.045810000000     0.894250000000    -0.106643   
C139     C      0.514180000000     0.099870000000     0.819830000000    -0.0301322  
C140     C      0.503270000000     0.043440000000     0.927680000000     0.07964    
C141     C      0.527990000000     0.112170000000     0.929340000000     0.1919     
C142     C      0.516700000000     0.097250000000     0.786190000000    -0.035791   
C143     C      0.535630000000     0.072570000000     0.739440000000     0.0515585  
C144     C      0.524020000000     0.081970000000     0.877870000000     0.0709209  
C145     C      0.491030000000     0.071840000000     0.222230000000    -0.129588   
C146     C      0.500330000000     0.034950000000     0.430270000000     0.0792109  
C147     C      0.530660000000     0.103980000000     0.434980000000     0.0865361  
C148     C      0.501300000000     0.038560000000     0.396300000000    -0.0925903  
C149     C      0.536870000000     0.058550000000     0.330360000000    -0.0338353  
C150     C      0.538850000000     0.059620000000     0.296420000000    -0.0289813  
C151     C      0.522760000000     0.079650000000     0.345370000000    -0.00255935 
C152     C      0.531860000000     0.108660000000     0.400850000000    -0.0890394  
C153     C      0.526550000000     0.081640000000     0.276620000000    -0.0117136  
C154     C      0.553730000000     0.078340000000     0.224290000000    -0.102868   
C155     C      0.513570000000     0.103810000000     0.291680000000    -0.0289298  
C156     C      0.548540000000     0.069360000000     0.191150000000     0.0911009  
C157     C      0.486250000000     0.062560000000     0.189030000000     0.197212   
C158     C      0.511950000000     0.103040000000     0.325810000000    -0.0346018  
C159     C      0.518200000000     0.075740000000     0.381240000000     0.0550432  
C160     C      0.524330000000     0.078510000000     0.240450000000     0.0743014  
C161     C      0.504130000000     0.698750000000     0.967750000000    -0.132526   
C162     C      0.494400000000     0.913030000000     0.995530000000     0.0767323  
C163     C      0.497100000000     0.893880000000     0.050960000000     0.0779907  
C164     C      0.499490000000     0.882700000000     0.985170000000    -0.0942704  
C165     C      0.540410000000     0.834850000000     0.976620000000    -0.0355797  
C166     C      0.548870000000     0.805790000000     0.969100000000    -0.0311894  
C167     C      0.511440000000     0.826600000000     0.998420000000    -0.00514638 
C168     C      0.501420000000     0.862950000000     0.041460000000    -0.0950493  
C169     C      0.527990000000     0.767800000000     0.982770000000    -0.0121647  
C170     C      0.572520000000     0.740760000000     0.976930000000    -0.101276   
C171     C      0.498900000000     0.759690000000     0.004340000000    -0.0312913  
C172     C      0.577000000000     0.707790000000     0.975630000000     0.0838843  
C173     C      0.509290000000     0.666510000000     0.966790000000     0.197372   
C174     C      0.490850000000     0.788680000000     0.012140000000    -0.0355222  
C175     C      0.503850000000     0.857720000000     0.008320000000     0.0512106  
C176     C      0.535400000000     0.735900000000     0.974830000000     0.0705815  
C177     C      0.500350000000     0.194500000000     0.120690000000    -0.130847   
C178     C      0.457130000000     0.389610000000     0.073990000000     0.0760529  
C179     C      0.523900000000     0.411390000000     0.081440000000     0.0745332  
C180     C      0.447760000000     0.351870000000     0.085010000000    -0.0938182  
C181     C      0.444650000000     0.272580000000     0.080890000000    -0.0349549  
C182     C      0.441820000000     0.235900000000     0.085110000000    -0.0298187  
C183     C      0.468560000000     0.303210000000     0.102270000000    -0.00468184 
C184     C      0.515570000000     0.374320000000     0.093200000000    -0.0940801  
C185     C      0.462570000000     0.228950000000     0.111020000000    -0.0112511  
C186     C      0.433840000000     0.156480000000     0.102010000000    -0.102038   
C187     C      0.484160000000     0.258860000000     0.133780000000    -0.0298664  
C188     C      0.438900000000     0.124390000000     0.098500000000     0.0902342  
C189     C      0.504570000000     0.161920000000     0.117170000000     0.193137   
C190     C      0.487400000000     0.295680000000     0.129280000000    -0.035232   
C191     C      0.477200000000     0.343780000000     0.094250000000     0.0510644  
C192     C      0.465190000000     0.192600000000     0.112010000000     0.0720113  
C193     C      0.700010000000     0.189010000000     0.496670000000    -0.130635   
C194     C      0.925620000000     0.392850000000     0.563100000000     0.0875177  
C195     C      0.919580000000     0.411850000000     0.508120000000     0.0786657  
C196     C      0.889650000000     0.358940000000     0.559850000000    -0.0936193  
C197     C      0.802390000000     0.307940000000     0.549530000000    -0.035967   
C198     C      0.766930000000     0.273220000000     0.548400000000    -0.0303222  
C199     C      0.829970000000     0.315480000000     0.526810000000    -0.00515485 
C200     C      0.883690000000     0.377700000000     0.503830000000    -0.0949148  
C201     C      0.758460000000     0.244810000000     0.524890000000    -0.0125443  
C202     C      0.705790000000     0.189740000000     0.555520000000    -0.104729   
C203     C      0.785740000000     0.252920000000     0.501460000000    -0.0302908  
C204     C      0.668750000000     0.157600000000     0.556390000000     0.0863141  
C205     C      0.662830000000     0.155980000000     0.498230000000     0.198316   
C206     C      0.821200000000     0.288150000000     0.502330000000    -0.0355055  
C207     C      0.868390000000     0.351070000000     0.529980000000     0.0542668  
C208     C      0.721340000000     0.206960000000     0.525510000000     0.0717481  
C209     C      0.204100000000     0.693940000000     0.637200000000    -0.129086   
C210     C      0.413770000000     0.893870000000     0.588120000000     0.0752684  
C211     C      0.450640000000     0.892730000000     0.635400000000     0.0755306  
C212     C      0.381940000000     0.859150000000     0.598020000000    -0.0948081  
C213     C      0.347260000000     0.769010000000     0.641360000000    -0.0349609  
C214     C      0.311570000000     0.733970000000     0.641550000000    -0.0305835  
C215     C      0.348610000000     0.805140000000     0.638000000000    -0.00503991 
C216     C      0.419020000000     0.857250000000     0.646000000000    -0.0936284  
C217     C      0.276780000000     0.734650000000     0.638230000000    -0.0107871  
C218     C      0.238870000000     0.673030000000     0.606340000000    -0.10126    
C219     C      0.278650000000     0.771150000000     0.638430000000    -0.0301025  
C220     C      0.204170000000     0.645860000000     0.590830000000     0.0853905  
C221     C      0.169490000000     0.666590000000     0.620980000000     0.191244   
C222     C      0.314150000000     0.805930000000     0.638350000000    -0.0349154  
C223     C      0.383920000000     0.840920000000     0.627550000000     0.0520418  
C224     C      0.239500000000     0.698990000000     0.628620000000     0.0704369  
C225     C      0.876590000000     0.497380000000     0.564970000000    -0.129123   
C226     C      0.694280000000     0.559100000000     0.511400000000     0.0799218  
C227     C      0.658320000000     0.498150000000     0.539350000000     0.0774437  
C228     C      0.727280000000     0.555800000000     0.514540000000    -0.0957362  
C229     C      0.781380000000     0.524110000000     0.505410000000    -0.0357451  
C230     C      0.815580000000     0.522940000000     0.507990000000    -0.0308231  
C231     C      0.760750000000     0.519170000000     0.533290000000    -0.00554636 
C232     C      0.691100000000     0.494290000000     0.543490000000    -0.0951266  
C233     C      0.830470000000     0.517540000000     0.538660000000    -0.0114472  
C234     C      0.898650000000     0.546010000000     0.521850000000    -0.102754   
C235     C      0.809160000000     0.511620000000     0.566480000000    -0.0300589  
C236     C      0.934880000000     0.549400000000     0.525700000000     0.0899524  
C237     C      0.913510000000     0.501690000000     0.568800000000     0.195916   
C238     C      0.774510000000     0.512120000000     0.563760000000    -0.03514    
C239     C      0.725890000000     0.523060000000     0.530550000000     0.0523641  
C240     C      0.868870000000     0.520000000000     0.541710000000     0.0721065  
C241     C      0.220390000000     0.544230000000     0.497450000000    -0.134803   
C242     C      0.396710000000     0.488500000000     0.569250000000     0.0874182  
C243     C      0.419950000000     0.552680000000     0.546930000000     0.0952156  
C244     C      0.358400000000     0.480140000000     0.563560000000    -0.0893895  
C245     C      0.280720000000     0.483160000000     0.555550000000    -0.0375031  
C246     C      0.246430000000     0.482340000000     0.544790000000    -0.0297761  
C247     C      0.312330000000     0.499630000000     0.535340000000    -0.00147108 
C248     C      0.382660000000     0.545730000000     0.541560000000    -0.0876444  
C249     C      0.243620000000     0.498110000000     0.513840000000    -0.0148371  
C250     C      0.173260000000     0.476040000000     0.504920000000    -0.107066   
C251     C      0.274070000000     0.511490000000     0.492800000000    -0.0282508  
C252     C      0.144170000000     0.485320000000     0.498650000000     0.0883517  
C253     C      0.190780000000     0.552870000000     0.492190000000     0.198605   
C254     C      0.307910000000     0.511950000000     0.503330000000    -0.0361334  
C255     C      0.351310000000     0.508430000000     0.547840000000     0.057538   
C256     C      0.211810000000     0.505890000000     0.505140000000     0.0741552  
C257     C      0.014490000000     0.584400000000     0.695100000000    -0.13021    
C258     C      0.001890000000     0.509680000000     0.905460000000     0.0808711  
C259     C      0.996770000000     0.566550000000     0.908580000000     0.0782763  
C260     C      0.998440000000     0.510970000000     0.871390000000    -0.088463   
C261     C      0.982320000000     0.513480000000     0.798870000000    -0.035051   
C262     C      0.989460000000     0.518240000000     0.765570000000    -0.0290703  
C263     C      0.997250000000     0.546310000000     0.819080000000    -0.00275495 
C264     C      0.992740000000     0.568430000000     0.874480000000    -0.0916495  
C265     C      0.010960000000     0.555890000000     0.751600000000    -0.0122924  
C266     C      0.040450000000     0.541900000000     0.706550000000    -0.104302   
C267     C      0.023990000000     0.588790000000     0.771170000000    -0.0292427  
C268     C      0.050780000000     0.546480000000     0.674180000000     0.0876326  
C269     C      0.024440000000     0.587960000000     0.662410000000     0.204134   
C270     C      0.017470000000     0.584070000000     0.804630000000    -0.0344368  
C271     C      0.995030000000     0.541300000000     0.855330000000     0.0519213  
C272     C      0.021850000000     0.560680000000     0.717210000000     0.0758304  
C273     C      0.038440000000     0.584460000000     0.200930000000    -0.133224   
C274     C      0.007920000000     0.526360000000     0.413260000000     0.0808494  
C275     C      0.058610000000     0.592650000000     0.411910000000     0.080774   
C276     C      0.000660000000     0.527530000000     0.379570000000    -0.0962062  
C277     C      0.985320000000     0.539540000000     0.307690000000    -0.0345909  
C278     C      0.983510000000     0.536280000000     0.273660000000    -0.0299499  
C279     C      0.021130000000     0.560990000000     0.324970000000    -0.0052345  
C280     C      0.051990000000     0.594910000000     0.378150000000    -0.0949548  
C281     C      0.017430000000     0.554640000000     0.256240000000    -0.0123572  
C282     C      0.993330000000     0.515370000000     0.204890000000    -0.103486   
C283     C      0.053110000000     0.576500000000     0.273430000000    -0.0299544  
C284     C      0.993610000000     0.513110000000     0.170970000000     0.0910978  
C285     C      0.038250000000     0.581550000000     0.167060000000     0.19847    
C286     C      0.054960000000     0.579570000000     0.307360000000    -0.034297   
C287     C      0.023850000000     0.561570000000     0.361350000000     0.0535333  
C288     C      0.015950000000     0.551390000000     0.220190000000     0.0745864  
C289     C      0.868400000000     0.365270000000     0.972590000000    -0.133519   
C290     C      0.643590000000     0.181210000000     0.046300000000     0.0817144  
C291     C      0.651930000000     0.143500000000     0.007820000000     0.0810952  
C292     C      0.677670000000     0.214530000000     0.037440000000    -0.0923084  
C293     C      0.730110000000     0.281560000000     0.992160000000    -0.0354377  
C294     C      0.762900000000     0.317270000000     0.984990000000    -0.0295802  
C295     C      0.733220000000     0.248620000000     0.001550000000    -0.00418731 
C296     C      0.686660000000     0.176270000000     0.998720000000    -0.0934916  
C297     C      0.799600000000     0.320930000000     0.987600000000    -0.0130538  
C298     C      0.836530000000     0.392560000000     0.999840000000    -0.104425   
C299     C      0.802370000000     0.287290000000     0.995370000000    -0.0295502  
C300     C      0.871560000000     0.427520000000     0.003260000000     0.0829396  
C301     C      0.903310000000     0.400760000000     0.976350000000     0.191921   
C302     C      0.769370000000     0.251340000000     0.002080000000    -0.0362498  
C303     C      0.699000000000     0.212480000000     0.012830000000     0.0540076  
C304     C      0.835000000000     0.360230000000     0.985840000000     0.0709669  
C305     C      0.213840000000     0.687000000000     0.071730000000    -0.133799   
C306     C      0.361490000000     0.918960000000     0.123480000000     0.0777356  
C307     C      0.404770000000     0.895540000000     0.119340000000     0.0730698  
C308     C      0.331560000000     0.881070000000     0.130270000000    -0.0899468  
C309     C      0.268220000000     0.800120000000     0.114500000000    -0.0338092  
C310     C      0.238350000000     0.761740000000     0.109580000000    -0.0292452  
C311     C      0.303940000000     0.807890000000     0.129350000000    -0.00338733 
C312     C      0.375100000000     0.856960000000     0.124990000000    -0.0900293  
C313     C      0.243300000000     0.729960000000     0.118980000000    -0.0111943  
C314     C      0.186450000000     0.661320000000     0.123810000000    -0.0988225  
C315     C      0.277850000000     0.737040000000     0.135450000000    -0.03102    
C316     C      0.154780000000     0.629820000000     0.107660000000     0.0912053  
C317     C      0.181710000000     0.656020000000     0.056220000000     0.198095   
C318     C      0.307890000000     0.775740000000     0.140820000000    -0.0347232  
C319     C      0.337460000000     0.849040000000     0.129460000000     0.0502718  
C320     C      0.215260000000     0.691230000000     0.105390000000     0.073362   
C321     C      0.878600000000     0.578780000000     0.064040000000    -0.132048   
C322     C      0.686730000000     0.610890000000     0.989900000000     0.0736748  
C323     C      0.672610000000     0.557550000000     0.026680000000     0.0762662  
C324     C      0.726250000000     0.622970000000     0.992830000000    -0.093714   
C325     C      0.799370000000     0.610220000000     0.991900000000    -0.0361207  
C326     C      0.834090000000     0.610120000000     0.997870000000    -0.0312783  
C327     C      0.779910000000     0.612880000000     0.018010000000    -0.00624527 
C328     C      0.711510000000     0.569170000000     0.030650000000    -0.0947206  
C329     C      0.849840000000     0.612730000000     0.030050000000    -0.0130949  
C330     C      0.913330000000     0.618260000000     0.018190000000    -0.103424   
C331     C      0.832010000000     0.619010000000     0.055610000000    -0.0314727  
C332     C      0.940800000000     0.606680000000     0.024850000000     0.0847541  
C333     C      0.906310000000     0.567550000000     0.070170000000     0.195025   
C334     C      0.797330000000     0.618820000000     0.049680000000    -0.036544   
C335     C      0.738850000000     0.602070000000     0.013700000000     0.0499865  
C336     C      0.881430000000     0.603830000000     0.037640000000     0.070701   
C337     C      0.153410000000     0.496010000000     0.987720000000    -0.132573   
C338     C      0.398310000000     0.557000000000     0.023270000000     0.0819559  
C339     C      0.362750000000     0.488290000000     0.033040000000     0.0740812  
C340     C      0.364600000000     0.557370000000     0.013710000000    -0.0882653  
C341     C      0.291120000000     0.545840000000     0.977550000000    -0.0350282  
C342     C      0.257590000000     0.547700000000     0.969900000000    -0.0291799  
C343     C      0.292880000000     0.522930000000     0.004350000000    -0.00310596 
C344     C      0.328280000000     0.487630000000     0.023750000000    -0.0915672  
C345     C      0.225120000000     0.526710000000     0.988940000000    -0.0101431  
C346     C      0.190570000000     0.564090000000     0.971890000000    -0.097257   
C347     C      0.227060000000     0.503780000000     0.015670000000    -0.0294274  
C348     C      0.156890000000     0.566470000000     0.971780000000     0.0896581  
C349     C      0.120810000000     0.499700000000     0.988170000000     0.199184   
C350     C      0.260350000000     0.501750000000     0.023140000000    -0.0349453  
C351     C      0.329010000000     0.522460000000     0.013690000000     0.0516247  
C352     C      0.189430000000     0.529040000000     0.982130000000     0.0725517  
C353     C      0.676780000000     0.733370000000     0.589410000000    -0.131194   
C354     C      0.925930000000     0.917720000000     0.585550000000     0.0735334  
C355     C      0.897350000000     0.957090000000     0.588460000000     0.0789706  
C356     C      0.891040000000     0.883990000000     0.592470000000    -0.090669   
C357     C      0.815890000000     0.816450000000     0.615810000000    -0.0355744  
C358     C      0.781130000000     0.780590000000     0.614030000000    -0.0308093  
C359     C      0.819510000000     0.849940000000     0.598880000000    -0.00401423 
C360     C      0.861810000000     0.923810000000     0.595330000000    -0.0915886  
C361     C      0.748990000000     0.777320000000     0.595440000000    -0.0120859  
C362     C      0.717030000000     0.705920000000     0.582580000000    -0.103591   
C363     C      0.751920000000     0.811250000000     0.580010000000    -0.030693   
C364     C      0.684280000000     0.670700000000     0.573340000000     0.0810876  
C365     C      0.644130000000     0.697480000000     0.580380000000     0.191145   
C366     C      0.786740000000     0.847090000000     0.581650000000    -0.0353356  
C367     C      0.857990000000     0.886450000000     0.596430000000     0.0498955  
C368     C      0.713760000000     0.738250000000     0.589750000000     0.069767   
C369     C      0.367950000000     0.417040000000     0.466890000000    -0.131596   
C370     C      0.150800000000     0.191200000000     0.472990000000     0.084223   
C371     C      0.183990000000     0.190320000000     0.522780000000     0.0815759  
C372     C      0.183430000000     0.226050000000     0.463050000000    -0.0910677  
C373     C      0.288780000000     0.276910000000     0.477590000000    -0.0355487  
C374     C      0.323910000000     0.310280000000     0.470710000000    -0.0302521  
C375     C      0.253920000000     0.276900000000     0.472190000000    -0.00438016 
C376     C      0.216880000000     0.224810000000     0.513650000000    -0.0943177  
C377     C      0.325230000000     0.344680000000     0.458170000000    -0.012099   
C378     C      0.396150000000     0.381330000000     0.447330000000    -0.104082   
C379     C      0.290160000000     0.344100000000     0.451220000000    -0.0302103  
C380     C      0.432810000000     0.413910000000     0.453490000000     0.0868509  
C381     C      0.405060000000     0.449110000000     0.472630000000     0.19769    
C382     C      0.254810000000     0.310460000000     0.458040000000    -0.0354595  
C383     C      0.217390000000     0.242470000000     0.483060000000     0.0529359  
C384     C      0.363240000000     0.381690000000     0.456230000000     0.0716426  
C385     C      0.705520000000     0.057590000000     0.523270000000    -0.136319   
C386     C      0.923710000000     0.078170000000     0.503620000000     0.0758647  
C387     C      0.887650000000     0.008660000000     0.506630000000     0.0799997  
C388     C      0.891640000000     0.080190000000     0.511610000000    -0.0918996  
C389     C      0.829160000000     0.076990000000     0.551130000000    -0.0350318  
C390     C      0.797570000000     0.079720000000     0.559900000000    -0.0297435  
C391     C      0.823890000000     0.047370000000     0.530000000000    -0.00409985 
C392     C      0.855180000000     0.009600000000     0.515120000000    -0.0950697  
C393     C      0.760390000000     0.052820000000     0.547680000000    -0.0139139  
C394     C      0.715970000000     0.062670000000     0.581710000000    -0.106202   
C395     C      0.754970000000     0.022010000000     0.528170000000    -0.0302726  
C396     C      0.680630000000     0.061380000000     0.583520000000     0.0824071  
C397     C      0.670410000000     0.055620000000     0.525670000000     0.195801   
C398     C      0.786330000000     0.019480000000     0.519220000000    -0.0357726  
C399     C      0.857310000000     0.045710000000     0.518810000000     0.0528909  
C400     C      0.727430000000     0.058660000000     0.551320000000     0.0737016  
C401     C      0.184650000000     0.021960000000     0.478130000000    -0.137676   
C402     C      0.393760000000     0.001670000000     0.507570000000     0.0798534  
C403     C      0.417670000000     0.069980000000     0.511390000000     0.08284    
C404     C      0.356960000000     0.994850000000     0.498910000000    -0.0947238  
C405     C      0.281530000000     0.987710000000     0.514640000000    -0.0341481  
C406     C      0.245350000000     0.984050000000     0.516510000000    -0.0294852  
C407     C      0.310090000000     0.018490000000     0.496120000000    -0.00473676 
C408     C      0.381080000000     0.064210000000     0.503020000000    -0.0936686  
C409     C      0.237300000000     0.011170000000     0.499950000000    -0.0141807  
C410     C      0.185930000000     0.005410000000     0.535260000000    -0.105898   
C411     C      0.265490000000     0.040960000000     0.480460000000    -0.0296341  
C412     C      0.157370000000     0.014680000000     0.539730000000     0.0872022  
C413     C      0.157700000000     0.032850000000     0.483360000000     0.196809   
C414     C      0.301340000000     0.044370000000     0.478370000000    -0.0351593  
C415     C      0.349960000000     0.026030000000     0.498250000000     0.054678   
C416     C      0.201090000000     0.010950000000     0.504380000000     0.0742611  
C417     C      0.077220000000     0.906620000000     0.514220000000    -0.13306    
C418     C      0.063440000000     0.703330000000     0.534000000000     0.0789564  
C419     C      0.104960000000     0.706230000000     0.494080000000     0.0753167  
C420     C      0.069200000000     0.739980000000     0.523740000000    -0.0903728  
C421     C      0.123390000000     0.831470000000     0.508290000000    -0.0360602  
C422     C      0.122150000000     0.866140000000     0.504650000000    -0.0302304  
C423     C      0.099520000000     0.799450000000     0.488260000000    -0.00458582 
C424     C      0.111110000000     0.743070000000     0.482950000000    -0.0919239  
C425     C      0.096640000000     0.869260000000     0.481140000000    -0.012996   
C426     C      0.085160000000     0.922950000000     0.456930000000    -0.101327   
C427     C      0.075150000000     0.838370000000     0.459270000000    -0.0300511  
C428     C      0.073410000000     0.950390000000     0.460900000000     0.0838434  
C429     C      0.064890000000     0.933410000000     0.517500000000     0.192093   
C430     C      0.076470000000     0.803590000000     0.462910000000    -0.0359383  
C431     C      0.093190000000     0.760210000000     0.498040000000     0.051102   
C432     C      0.087090000000     0.900700000000     0.483880000000     0.070908   
C433     C      0.099840000000     0.240480000000     0.556920000000    -0.13232    
C434     C      0.102960000000     0.445540000000     0.608160000000     0.0759105  
C435     C      0.080070000000     0.416840000000     0.555990000000     0.0783337  
C436     C      0.117730000000     0.420420000000     0.615860000000    -0.0941684  
C437     C      0.109710000000     0.335560000000     0.623190000000    -0.0347458  
C438     C      0.110520000000     0.300630000000     0.621680000000    -0.0309081  
C439     C      0.127160000000     0.365090000000     0.599140000000    -0.00695808 
C440     C      0.095190000000     0.392410000000     0.562450000000    -0.098066   
C441     C      0.128690000000     0.294990000000     0.596070000000    -0.0130549  
C442     C      0.124170000000     0.229860000000     0.609230000000    -0.104208   
C443     C      0.149960000000     0.326400000000     0.574480000000    -0.0324603  
C444     C      0.111010000000     0.191120000000     0.600420000000     0.0819362  
C445     C      0.086060000000     0.201520000000     0.549000000000     0.190335   
C446     C      0.149320000000     0.361230000000     0.576080000000    -0.0360022  
C447     C      0.114210000000     0.393860000000     0.592550000000     0.0518934  
C448     C      0.118350000000     0.254810000000     0.587350000000     0.0706552  
C449     C      0.000320000000     0.021920000000     0.692200000000    -0.132129   
C450     C      0.042130000000     0.998390000000     0.903920000000     0.0755825  
C451     C      0.998870000000     0.022280000000     0.893620000000     0.0755157  
C452     C      0.040820000000     0.991270000000     0.870610000000    -0.0926382  
C453     C      0.053470000000     0.009910000000     0.797430000000    -0.0359898  
C454     C      0.054410000000     0.011540000000     0.763310000000    -0.0301952  
C455     C      0.018410000000     0.995860000000     0.812630000000    -0.0030859  
C456     C      0.996610000000     0.015200000000     0.860330000000    -0.0894924  
C457     C      0.020290000000     0.999080000000     0.743740000000    -0.0119824  
C458     C      0.046590000000     0.001030000000     0.689300000000    -0.103831   
C459     C      0.984960000000     0.982720000000     0.759020000000    -0.0293843  
C460     C      0.050140000000     0.011880000000     0.656180000000     0.0847969  
C461     C      0.004350000000     0.032650000000     0.659020000000     0.193229   
C462     C      0.984050000000     0.981200000000     0.793100000000    -0.0351968  
C463     C      0.018100000000     0.000020000000     0.848380000000     0.0499253  
C464     C      0.021980000000     0.006690000000     0.707850000000     0.0718456  
C465     C      0.998180000000     0.999110000000     0.188880000000    -0.127303   
C466     C      0.024410000000     0.066230000000     0.397370000000     0.077181   
C467     C      0.983980000000     0.997000000000     0.398830000000     0.0803889  
C468     C      0.027380000000     0.065970000000     0.363680000000    -0.092717   
C469     C      0.050170000000     0.046640000000     0.299530000000    -0.0341809  
C470     C      0.054650000000     0.046230000000     0.265980000000    -0.0284626  
C471     C      0.013180000000     0.029710000000     0.311850000000    -0.00379552 
C472     C      0.985660000000     0.995780000000     0.364920000000    -0.0931722  
C473     C      0.022200000000     0.029450000000     0.244000000000    -0.00961101 
C474     C      0.057170000000     0.060900000000     0.192150000000    -0.0973146  
C475     C      0.985210000000     0.012970000000     0.256610000000    -0.0282727  
C476     C      0.057760000000     0.062120000000     0.157980000000     0.0945752  
C477     C      0.998470000000     0.001630000000     0.154750000000     0.203572   
C478     C      0.980770000000     0.012660000000     0.290160000000    -0.0343875  
C479     C      0.008500000000     0.030440000000     0.347240000000     0.053235   
C480     C      0.026430000000     0.029620000000     0.208020000000     0.0752171  
C481     C      0.848510000000     0.903300000000     0.981660000000    -0.131119   
C482     C      0.669230000000     0.668660000000     0.052990000000     0.0818438  
C483     C      0.639070000000     0.706890000000     0.053510000000     0.0796699  
C484     C      0.704560000000     0.701990000000     0.046800000000    -0.0936178  
C485     C      0.778920000000     0.780040000000     0.041440000000    -0.0360578  
C486     C      0.812240000000     0.810270000000     0.027770000000    -0.0284769  
C487     C      0.742310000000     0.772470000000     0.029450000000    -0.00419154 
C488     C      0.673990000000     0.740940000000     0.046980000000    -0.0939002  
C489     C      0.809760000000     0.833540000000     0.001650000000    -0.0127936  
C490     C      0.878210000000     0.863530000000     0.985390000000    -0.104886   
C491     C      0.773120000000     0.826110000000     0.989790000000    -0.0296091  
C492     C      0.913800000000     0.897120000000     0.980290000000     0.0868021  
C493     C      0.884610000000     0.936460000000     0.976470000000     0.198437   
C494     C      0.739760000000     0.795920000000     0.003560000000    -0.0351076  
C495     C      0.706830000000     0.738390000000     0.042100000000     0.0531835  
C496     C      0.845560000000     0.866860000000     0.988530000000     0.0735378  
C497     C      0.199330000000     0.221870000000     0.039930000000    -0.130269   
C498     C      0.424810000000     0.405310000000     0.972450000000     0.0810802  
C499     C      0.396530000000     0.444960000000     0.975630000000     0.0840702  
C500     C      0.388610000000     0.371340000000     0.974040000000    -0.0947038  
C501     C      0.304070000000     0.304660000000     0.968120000000    -0.0362444  
C502     C      0.269040000000     0.271420000000     0.975820000000    -0.0305884  
C503     C      0.318710000000     0.339030000000     0.986170000000    -0.00508375 
C504     C      0.359970000000     0.411650000000     0.977670000000    -0.0929815  
C505     C      0.248290000000     0.271710000000     0.002020000000    -0.0129468  
C506     C      0.182270000000     0.221580000000     0.982600000000    -0.106698   
C507     C      0.263370000000     0.305760000000     0.020550000000    -0.0302753  
C508     C      0.145340000000     0.190970000000     0.988530000000     0.0889007  
C509     C      0.161960000000     0.190390000000     0.045280000000     0.194379   
C510     C      0.298130000000     0.339180000000     0.012580000000    -0.0351799  
C511     C      0.356010000000     0.374340000000     0.978450000000     0.0532078  
C512     C      0.209670000000     0.237630000000     0.008370000000     0.0726637  
C513     C      0.881100000000     0.073980000000     0.096420000000    -0.129107   
C514     C      0.644630000000     0.037400000000     0.100920000000     0.0786038  
C515     C      0.647010000000     0.042130000000     0.043140000000     0.0793654  
C516     C      0.681490000000     0.041700000000     0.103790000000    -0.0933966  
C517     C      0.766110000000     0.063630000000     0.104430000000    -0.034687   
C518     C      0.800850000000     0.063140000000     0.106150000000    -0.0312919  
C519     C      0.739490000000     0.047480000000     0.077520000000    -0.00542503 
C520     C      0.684160000000     0.047700000000     0.045150000000    -0.0957478  
C521     C      0.809970000000     0.046800000000     0.080850000000    -0.0106497  
C522     C      0.845730000000     0.012800000000     0.068580000000    -0.101032   
C523     C      0.783780000000     0.031720000000     0.053660000000    -0.0317181  
C524     C      0.879920000000     0.012790000000     0.065850000000     0.0926812  
C525     C      0.915210000000     0.072580000000     0.094360000000     0.190059   
C526     C      0.748980000000     0.031470000000     0.052270000000    -0.0344753  
C527     C      0.701610000000     0.046260000000     0.075620000000     0.051717   
C528     C      0.846060000000     0.044600000000     0.082320000000     0.0708344  
C529     C      0.191310000000     0.065680000000     0.032790000000    -0.128813   
C530     C      0.405640000000     0.073900000000     0.998450000000     0.0791047  
C531     C      0.368830000000     0.006310000000     0.012110000000     0.0811673  
C532     C      0.372180000000     0.075800000000     0.991740000000    -0.0918426  
C533     C      0.297180000000     0.073720000000     0.973770000000    -0.0357804  
C534     C      0.266520000000     0.080770000000     0.975650000000    -0.0312425  
C535     C      0.300520000000     0.046290000000     0.995030000000    -0.00379829 
C536     C      0.334530000000     0.007090000000     0.005370000000    -0.0910159  
C537     C      0.238070000000     0.060300000000     0.998630000000    -0.0104903  
C538     C      0.189280000000     0.078750000000     0.974990000000    -0.101734   
C539     C      0.240470000000     0.031570000000     0.018770000000    -0.0305417  
C540     C      0.156620000000     0.082050000000     0.978650000000     0.0824383  
C541     C      0.158300000000     0.068410000000     0.035630000000     0.193239   
C542     C      0.271280000000     0.024880000000     0.017170000000    -0.034172   
C543     C      0.335890000000     0.042600000000     0.996440000000     0.0515585  
C544     C      0.206050000000     0.068640000000     0.002050000000     0.0688244  
C545     C      0.006470000000     0.877680000000     0.094170000000    -0.133521   
C546     C      0.045660000000     0.688500000000     0.078110000000     0.0785353  
C547     C      0.037170000000     0.694760000000     0.020800000000     0.0749543  
C548     C      0.029820000000     0.711400000000     0.083880000000    -0.0892244  
C549     C      0.978140000000     0.759690000000     0.042430000000    -0.0348483  
C550     C      0.966700000000     0.786770000000     0.048600000000    -0.0303814  
C551     C      0.003630000000     0.754660000000     0.064660000000    -0.00332549 
C552     C      0.022840000000     0.719870000000     0.025740000000    -0.0907577  
C553     C      0.979750000000     0.808630000000     0.077480000000    -0.0118481  
C554     C      0.942290000000     0.844100000000     0.069040000000    -0.103571   
C555     C      0.002510000000     0.801150000000     0.100760000000    -0.0298491  
C556     C      0.942820000000     0.879790000000     0.066970000000     0.087289   
C557     C      0.006170000000     0.912650000000     0.091710000000     0.198619   
C558     C      0.015260000000     0.775670000000     0.094040000000    -0.0340197  
C559     C      0.018520000000     0.728100000000     0.057770000000     0.0512061  
C560     C      0.975320000000     0.843300000000     0.081110000000     0.0730351  
C561     C      0.959700000000     0.178040000000     0.964870000000    -0.130474   
C562     C      0.948840000000     0.376290000000     0.054230000000     0.0875623  
C563     C      0.015080000000     0.395680000000     0.054700000000     0.0861201  
C564     C      0.938440000000     0.339980000000     0.041420000000    -0.0902947  
C565     C      0.925110000000     0.258920000000     0.027470000000    -0.035064   
C566     C      0.919410000000     0.223510000000     0.016170000000    -0.0299726  
C567     C      0.957270000000     0.294670000000     0.018220000000    -0.000868594
C568     C      0.005740000000     0.359550000000     0.042270000000    -0.0867028  
C569     C      0.945960000000     0.223150000000     0.995690000000    -0.0109869  
C570     C      0.946790000000     0.166060000000     0.022090000000    -0.102339   
C571     C      0.975800000000     0.259030000000     0.983840000000    -0.0275232  
C572     C      0.960720000000     0.140420000000     0.023100000000     0.0908292  
C573     C      0.972590000000     0.150840000000     0.966430000000     0.199426   
C574     C      0.981350000000     0.294420000000     0.994960000000    -0.0321864  
C575     C      0.967150000000     0.331830000000     0.034080000000     0.0578656  
C576     C      0.948460000000     0.187190000000     0.993340000000     0.0734439  
Co1      Co     0.033390000000     0.094920000000     0.059370000000     1.13833    
Co2      Co     0.030610000000     0.003170000000     0.013510000000     0.890584   
Co3      Co     0.040220000000     0.085340000000     0.982760000000     1.13001    
Co4      Co     0.981120000000     0.004960000000     0.041140000000     1.13312    
Co5      Co     0.071230000000     0.064690000000     0.484540000000     1.09392    
Co6      Co     0.008760000000     0.068780000000     0.551690000000     1.09216    
Co7      Co     0.994300000000     0.994510000000     0.513250000000     1.09458    
Co8      Co     0.090560000000     0.073880000000     0.562050000000     1.06808    
Co9      Co     0.025200000000     0.494640000000     0.013570000000     1.18368    
Co10     Co     0.041370000000     0.583880000000     0.055950000000     1.07979    
Co11     Co     0.969620000000     0.498960000000     0.064290000000     1.13607    
Co12     Co     0.061380000000     0.589810000000     0.003360000000     0.842498   
Co13     Co     0.041550000000     0.495320000000     0.510200000000     1.16235    
Co14     Co     0.056270000000     0.589150000000     0.553120000000     1.07451    
Co15     Co     0.034410000000     0.508530000000     0.584050000000     1.05271    
Co16     Co     0.108230000000     0.593260000000     0.514220000000     1.05509    
Co17     Co     0.460710000000     0.020820000000     0.080330000000     1.09545    
Co18     Co     0.533990000000     0.031410000000     0.019510000000     1.10736    
Co19     Co     0.520480000000     0.097490000000     0.044920000000     1.10201    
Co20     Co     0.519440000000     0.004960000000     0.096500000000     1.02192    
Co21     Co     0.478660000000     0.014900000000     0.582970000000     1.11045    
Co22     Co     0.551510000000     0.028780000000     0.519260000000     1.11758    
Co23     Co     0.538900000000     0.093340000000     0.549110000000     1.07195    
Co24     Co     0.555610000000     0.011440000000     0.597210000000     1.06067    
Co25     Co     0.545550000000     0.503690000000     0.006410000000     1.12489    
Co26     Co     0.520370000000     0.590890000000     0.040310000000     0.811694   
Co27     Co     0.482970000000     0.513370000000     0.038750000000     1.15834    
Co28     Co     0.563910000000     0.589000000000     0.002380000000     1.07631    
Co29     Co     0.548950000000     0.493340000000     0.501800000000     1.00348    
Co30     Co     0.533870000000     0.584240000000     0.540480000000     1.11126    
Co31     Co     0.511260000000     0.498870000000     0.549190000000     1.05314    
Co32     Co     0.602590000000     0.591530000000     0.501500000000     1.14518    
H1       H      0.551570000000     0.600190000000     0.637280000000     0.0344323  
H2       H      0.547270000000     0.493290000000     0.912790000000     0.0223107  
H3       H      0.504840000000     0.556130000000     0.736250000000     0.04253    
H4       H      0.590210000000     0.526480000000     0.809800000000     0.0388026  
H5       H      0.548710000000     0.490320000000     0.854420000000     0.0570709  
H6       H      0.596220000000     0.529030000000     0.750560000000     0.0400512  
H7       H      0.533750000000     0.590400000000     0.842150000000     0.0837216  
H8       H      0.552180000000     0.599190000000     0.696390000000     0.0585068  
H9       H      0.560850000000     0.494740000000     0.699150000000     0.0552647  
H10      H      0.498480000000     0.553130000000     0.795140000000     0.0430246  
H11      H      0.560460000000     0.496720000000     0.639580000000     0.0309552  
H12      H      0.545810000000     0.609000000000     0.140030000000     0.0289256  
H13      H      0.552160000000     0.485060000000     0.409000000000     0.0248458  
H14      H      0.521690000000     0.583950000000     0.247980000000     0.0421461  
H15      H      0.570770000000     0.499180000000     0.296700000000     0.0389561  
H16      H      0.540010000000     0.481110000000     0.350140000000     0.0586604  
H17      H      0.558020000000     0.499440000000     0.237450000000     0.0404925  
H18      H      0.591270000000     0.606460000000     0.343750000000     0.0839687  
H19      H      0.557720000000     0.606730000000     0.198660000000     0.0562447  
H20      H      0.506240000000     0.481050000000     0.194910000000     0.0562379  
H21      H      0.534400000000     0.583700000000     0.306870000000     0.0453798  
H22      H      0.495290000000     0.484430000000     0.136090000000     0.0328055  
H23      H      0.548370000000     0.908990000000     0.577820000000     0.0233073  
H24      H      0.617310000000     0.701000000000     0.475710000000     0.0329271  
H25      H      0.489860000000     0.804120000000     0.461480000000     0.0412322  
H26      H      0.601030000000     0.793540000000     0.508730000000     0.0429667  
H27      H      0.615300000000     0.761120000000     0.470720000000     0.0607836  
H28      H      0.593200000000     0.847070000000     0.524510000000     0.0410854  
H29      H      0.490990000000     0.693420000000     0.464260000000     0.0820634  
H30      H      0.552670000000     0.854980000000     0.557940000000     0.0564939  
H31      H      0.510520000000     0.871720000000     0.462270000000     0.0564828  
H32      H      0.499580000000     0.752200000000     0.443370000000     0.0421241  
H33      H      0.504780000000     0.924620000000     0.483580000000     0.0274133  
H34      H      0.453010000000     0.390270000000     0.605250000000     0.0325431  
H35      H      0.563740000000     0.167320000000     0.611870000000     0.0251962  
H36      H      0.433610000000     0.258040000000     0.585970000000     0.0404538  
H37      H      0.545570000000     0.263550000000     0.649550000000     0.0377567  
H38      H      0.557320000000     0.223400000000     0.618560000000     0.0559117  
H39      H      0.544300000000     0.323950000000     0.637150000000     0.0403763  
H40      H      0.435730000000     0.147800000000     0.631850000000     0.0803142  
H41      H      0.446760000000     0.328550000000     0.626960000000     0.0558621  
H42      H      0.537210000000     0.345210000000     0.565950000000     0.0549278  
H43      H      0.435390000000     0.197590000000     0.596620000000     0.0401572  
H44      H      0.542090000000     0.405600000000     0.544080000000     0.0239753  
H45      H      0.471380000000     0.030760000000     0.675590000000     0.0361008  
H46      H      0.491530000000     0.014540000000     0.939100000000     0.0225822  
H47      H      0.502560000000     0.108280000000     0.769060000000     0.042511   
H48      H      0.564860000000     0.055820000000     0.848260000000     0.0381342  
H49      H      0.500420000000     0.019310000000     0.881260000000     0.0578835  
H50      H      0.569850000000     0.051820000000     0.789620000000     0.0398174  
H51      H      0.544190000000     0.143420000000     0.882940000000     0.0820534  
H52      H      0.474100000000     0.049030000000     0.731740000000     0.0593145  
H53      H      0.596700000000     0.093380000000     0.737940000000     0.055347   
H54      H      0.497840000000     0.112500000000     0.828070000000     0.0417975  
H55      H      0.593160000000     0.075060000000     0.681410000000     0.0282875  
H56      H      0.542820000000     0.130170000000     0.449510000000     0.0324132  
H57      H      0.571950000000     0.068740000000     0.180040000000     0.0324403  
H58      H      0.501010000000     0.119610000000     0.336790000000     0.0415569  
H59      H      0.548590000000     0.041890000000     0.285610000000     0.0402316  
H60      H      0.580340000000     0.084110000000     0.237400000000     0.0612148  
H61      H      0.545910000000     0.040700000000     0.344900000000     0.0452148  
H62      H      0.467770000000     0.071800000000     0.234180000000     0.0833181  
H63      H      0.544850000000     0.137890000000     0.390030000000     0.0605701  
H64      H      0.489490000000     0.012330000000     0.381900000000     0.0568102  
H65      H      0.504120000000     0.121250000000     0.277030000000     0.0435206  
H66      H      0.487810000000     0.005590000000     0.440880000000     0.0282965  
H67      H      0.496760000000     0.897610000000     0.076980000000     0.0208868  
H68      H      0.605810000000     0.712220000000     0.979980000000     0.0297609  
H69      H      0.468360000000     0.781370000000     0.028950000000     0.0402745  
H70      H      0.571360000000     0.812860000000     0.952370000000     0.0399075  
H71      H      0.597620000000     0.769260000000     0.981830000000     0.0562672  
H72      H      0.557050000000     0.863980000000     0.965960000000     0.0397307  
H73      H      0.475330000000     0.694520000000     0.964090000000     0.0818003  
H74      H      0.504390000000     0.844160000000     0.060170000000     0.0545027  
H75      H      0.500450000000     0.879140000000     0.959250000000     0.0548421  
H76      H      0.482550000000     0.730830000000     0.015570000000     0.0408971  
H77      H      0.492330000000     0.932460000000     0.976930000000     0.0217796  
H78      H      0.554040000000     0.433890000000     0.080060000000     0.027628   
H79      H      0.414290000000     0.097600000000     0.089150000000     0.0357068  
H80      H      0.505610000000     0.318670000000     0.146380000000     0.041054   
H81      H      0.425220000000     0.213850000000     0.066880000000     0.0389974  
H82      H      0.405770000000     0.153250000000     0.095940000000     0.0607219  
H83      H      0.430030000000     0.277690000000     0.059710000000     0.0402583  
H84      H      0.525130000000     0.221620000000     0.129170000000     0.0814052  
H85      H      0.539160000000     0.369180000000     0.099980000000     0.0556905  
H86      H      0.417730000000     0.329000000000     0.085700000000     0.0566225  
H87      H      0.499710000000     0.254320000000     0.154530000000     0.0419685  
H88      H      0.433550000000     0.394500000000     0.066320000000     0.0331893  
H89      H      0.930530000000     0.432100000000     0.487450000000     0.0246851  
H90      H      0.657570000000     0.145830000000     0.580310000000     0.0331449  
H91      H      0.842250000000     0.293460000000     0.484610000000     0.0410676  
H92      H      0.746170000000     0.268630000000     0.566150000000     0.0388839  
H93      H      0.721790000000     0.201590000000     0.578450000000     0.0583318  
H94      H      0.808360000000     0.328930000000     0.568310000000     0.044093   
H95      H      0.711140000000     0.201890000000     0.473040000000     0.0825473  
H96      H      0.867750000000     0.372490000000     0.480450000000     0.0559758  
H97      H      0.878630000000     0.338780000000     0.580550000000     0.0591156  
H98      H      0.780160000000     0.231680000000     0.483080000000     0.0421228  
H99      H      0.941310000000     0.397750000000     0.586610000000     0.0326101  
H100     H      0.477120000000     0.905540000000     0.650610000000     0.0243646  
H101     H      0.205820000000     0.627680000000     0.572740000000     0.0394153  
H102     H      0.314550000000     0.833560000000     0.635940000000     0.0423347  
H103     H      0.311240000000     0.706400000000     0.642180000000     0.0397849  
H104     H      0.265290000000     0.675410000000     0.598850000000     0.0608214  
H105     H      0.373510000000     0.767720000000     0.641170000000     0.0415814  
H106     H      0.203460000000     0.712620000000     0.655330000000     0.0818587  
H107     H      0.421610000000     0.843450000000     0.668790000000     0.0560188  
H108     H      0.355590000000     0.846750000000     0.582660000000     0.0573512  
H109     H      0.252760000000     0.773170000000     0.635670000000     0.0432728  
H110     H      0.410430000000     0.907020000000     0.565170000000     0.0305544  
H111     H      0.631700000000     0.474950000000     0.549200000000     0.025635   
H112     H      0.956680000000     0.570440000000     0.509650000000     0.0323411  
H113     H      0.759220000000     0.508440000000     0.585660000000     0.0412417  
H114     H      0.830460000000     0.526560000000     0.485870000000     0.0383422  
H115     H      0.894560000000     0.564700000000     0.503810000000     0.0591747  
H116     H      0.771050000000     0.529010000000     0.481530000000     0.0407425  
H117     H      0.853950000000     0.476240000000     0.580270000000     0.0810778  
H118     H      0.689000000000     0.468570000000     0.556070000000     0.0547097  
H119     H      0.753830000000     0.578890000000     0.504580000000     0.0566664  
H120     H      0.819790000000     0.507890000000     0.590580000000     0.0430214  
H121     H      0.696720000000     0.584940000000     0.498690000000     0.025372   
H122     H      0.443440000000     0.581330000000     0.539880000000     0.0318121  
H123     H      0.114650000000     0.461360000000     0.499120000000     0.0217081  
H124     H      0.331500000000     0.523860000000     0.486920000000     0.056446   
H125     H      0.223180000000     0.471860000000     0.561420000000     0.0395343  
H126     H      0.165650000000     0.445860000000     0.509950000000     0.0574125  
H127     H      0.283330000000     0.473300000000     0.580230000000     0.0406325  
H128     H      0.250180000000     0.567690000000     0.496400000000     0.0842199  
H129     H      0.378410000000     0.568930000000     0.530770000000     0.0641844  
H130     H      0.334750000000     0.451180000000     0.569380000000     0.056384   
H131     H      0.272350000000     0.523320000000     0.468700000000     0.0444621  
H132     H      0.401620000000     0.465380000000     0.579180000000     0.0334957  
H133     H      0.996250000000     0.588930000000     0.922420000000     0.0293441  
H134     H      0.065020000000     0.531040000000     0.667190000000     0.0240002  
H135     H      0.029940000000     0.610080000000     0.819350000000     0.0420739  
H136     H      0.978680000000     0.492450000000     0.750760000000     0.0424852  
H137     H      0.047250000000     0.523880000000     0.723260000000     0.0607812  
H138     H      0.965820000000     0.484000000000     0.808870000000     0.0427813  
H139     H      0.000520000000     0.599650000000     0.703130000000     0.0853028  
H140     H      0.988950000000     0.591700000000     0.863240000000     0.0554212  
H141     H      0.000600000000     0.489380000000     0.857860000000     0.0597017  
H142     H      0.040820000000     0.618120000000     0.760900000000     0.0452509  
H143     H      0.005960000000     0.486530000000     0.916670000000     0.043863   
H144     H      0.081780000000     0.618560000000     0.423760000000     0.0259878  
H145     H      0.975330000000     0.484500000000     0.160270000000     0.0285514  
H146     H      0.083090000000     0.595500000000     0.319850000000     0.0421688  
H147     H      0.955580000000     0.519660000000     0.260950000000     0.0418441  
H148     H      0.975900000000     0.488920000000     0.219080000000     0.060768   
H149     H      0.958680000000     0.525160000000     0.320450000000     0.0400261  
H150     H      0.056450000000     0.612700000000     0.212280000000     0.0827373  
H151     H      0.069800000000     0.622240000000     0.365160000000     0.056352   
H152     H      0.978500000000     0.501050000000     0.367750000000     0.0553165  
H153     H      0.079800000000     0.590510000000     0.260710000000     0.0423794  
H154     H      0.990310000000     0.498810000000     0.426120000000     0.0252352  
H155     H      0.642400000000     0.116180000000     0.995540000000     0.0225211  
H156     H      0.871400000000     0.450910000000     0.015880000000     0.0283901  
H157     H      0.772360000000     0.226240000000     0.009320000000     0.0404494  
H158     H      0.759590000000     0.342290000000     0.978350000000     0.0395544  
H159     H      0.811400000000     0.390340000000     0.010170000000     0.0589522  
H160     H      0.702320000000     0.279860000000     0.991080000000     0.0450437  
H161     H      0.867600000000     0.341430000000     0.959930000000     0.0814323  
H162     H      0.702870000000     0.173670000000     0.979880000000     0.0560622  
H163     H      0.686970000000     0.241970000000     0.049380000000     0.0597627  
H164     H      0.830190000000     0.289100000000     0.997980000000     0.038502   
H165     H      0.627510000000     0.184400000000     0.064960000000     0.0395764  
H166     H      0.433000000000     0.900130000000     0.114680000000     0.0241043  
H167     H      0.132000000000     0.608110000000     0.122560000000     0.0447078  
H168     H      0.334600000000     0.780370000000     0.152870000000     0.0398326  
H169     H      0.212060000000     0.756880000000     0.096370000000     0.0477663  
H170     H      0.187050000000     0.663520000000     0.150130000000     0.0664636  
H171     H      0.263840000000     0.823520000000     0.104590000000     0.0419685  
H172     H      0.236670000000     0.709390000000     0.057210000000     0.0850541  
H173     H      0.381400000000     0.833500000000     0.123960000000     0.0533788  
H174     H      0.303580000000     0.876960000000     0.135000000000     0.0571016  
H175     H      0.282360000000     0.712850000000     0.142550000000     0.0412798  
H176     H      0.355100000000     0.942540000000     0.123020000000     0.0416311  
H177     H      0.652700000000     0.531670000000     0.040400000000     0.0302618  
H178     H      0.964500000000     0.617900000000     0.008600000000     0.0319699  
H179     H      0.782920000000     0.621090000000     0.070190000000     0.0410223  
H180     H      0.847030000000     0.605160000000     0.977640000000     0.0388974  
H181     H      0.916910000000     0.638090000000     0.997740000000     0.0563463  
H182     H      0.786290000000     0.605250000000     0.967310000000     0.0408127  
H183     H      0.854370000000     0.567200000000     0.079710000000     0.0820585  
H184     H      0.720140000000     0.552040000000     0.046720000000     0.056911   
H185     H      0.746750000000     0.648590000000     0.979280000000     0.0549693  
H186     H      0.843810000000     0.622020000000     0.080550000000     0.0417688  
H187     H      0.677820000000     0.627860000000     0.973920000000     0.0319897  
H188     H      0.361120000000     0.460730000000     0.040190000000     0.0301155  
H189     H      0.158680000000     0.594090000000     0.964990000000     0.0429135  
H190     H      0.260990000000     0.484470000000     0.044300000000     0.041978   
H191     H      0.257070000000     0.565340000000     0.949000000000     0.0411726  
H192     H      0.217500000000     0.590100000000     0.965960000000     0.0647808  
H193     H      0.315670000000     0.562270000000     0.962400000000     0.0459642  
H194     H      0.150630000000     0.467500000000     0.992420000000     0.0827278  
H195     H      0.301320000000     0.459920000000     0.024030000000     0.0538713  
H196     H      0.366440000000     0.585070000000     0.006860000000     0.0602231  
H197     H      0.203080000000     0.487990000000     0.031490000000     0.0440598  
H198     H      0.425120000000     0.584900000000     0.023080000000     0.0397155  
H199     H      0.898710000000     0.985210000000     0.586590000000     0.0354205  
H200     H      0.688870000000     0.647090000000     0.567070000000     0.026967   
H201     H      0.788460000000     0.872020000000     0.567940000000     0.0387443  
H202     H      0.779650000000     0.755180000000     0.626680000000     0.0394927  
H203     H      0.745030000000     0.708220000000     0.582590000000     0.0578312  
H204     H      0.840230000000     0.817680000000     0.629880000000     0.0412434  
H205     H      0.673280000000     0.757600000000     0.595850000000     0.0806665  
H206     H      0.837280000000     0.927280000000     0.598900000000     0.0556894  
H207     H      0.889680000000     0.855910000000     0.592940000000     0.0563544  
H208     H      0.727870000000     0.809720000000     0.565200000000     0.0402421  
H209     H      0.950320000000     0.914110000000     0.581520000000     0.0377328  
H210     H      0.185360000000     0.177370000000     0.546450000000     0.024146   
H211     H      0.457590000000     0.411110000000     0.449060000000     0.0210502  
H212     H      0.228380000000     0.311250000000     0.453510000000     0.0417971  
H213     H      0.350180000000     0.309620000000     0.476820000000     0.0385696  
H214     H      0.393800000000     0.355180000000     0.437620000000     0.0575614  
H215     H      0.289010000000     0.251260000000     0.487940000000     0.0410237  
H216     H      0.343220000000     0.419420000000     0.472220000000     0.079915   
H217     H      0.242100000000     0.237240000000     0.530340000000     0.0551274  
H218     H      0.182550000000     0.239060000000     0.439330000000     0.0586863  
H219     H      0.290060000000     0.369930000000     0.441230000000     0.0412949  
H220     H      0.125510000000     0.178460000000     0.456360000000     0.0372493  
H221     H      0.885250000000     0.980150000000     0.505550000000     0.0246188  
H222     H      0.671370000000     0.062280000000     0.607580000000     0.021155   
H223     H      0.781120000000     0.996450000000     0.502830000000     0.040376   
H224     H      0.802350000000     0.103680000000     0.574970000000     0.0398567  
H225     H      0.732940000000     0.064500000000     0.603920000000     0.0583082  
H226     H      0.857740000000     0.098400000000     0.560490000000     0.0427221  
H227     H      0.715110000000     0.056750000000     0.499330000000     0.0853293  
H228     H      0.829180000000     0.982130000000     0.520210000000     0.0537847  
H229     H      0.894050000000     0.108660000000     0.512810000000     0.058019   
H230     H      0.726400000000     0.000650000000     0.518690000000     0.0422188  
H231     H      0.950300000000     0.105580000000     0.499610000000     0.0375226  
H232     H      0.440680000000     0.099560000000     0.516820000000     0.0260521  
H233     H      0.147480000000     0.011680000000     0.564280000000     0.0326948  
H234     H      0.322670000000     0.068100000000     0.463710000000     0.040288   
H235     H      0.224090000000     0.960680000000     0.531480000000     0.0377798  
H236     H      0.197700000000     0.996500000000     0.556260000000     0.0603337  
H237     H      0.287710000000     0.967560000000     0.528920000000     0.0417872  
H238     H      0.194530000000     0.024390000000     0.453660000000     0.0831149  
H239     H      0.376840000000     0.089180000000     0.502580000000     0.0564271  
H240     H      0.333810000000     0.965140000000     0.494280000000     0.056005   
H241     H      0.260570000000     0.062880000000     0.467820000000     0.042486   
H242     H      0.397770000000     0.976480000000     0.509300000000     0.0320766  
H243     H      0.119370000000     0.693760000000     0.482010000000     0.0265075  
H244     H      0.071540000000     0.966550000000     0.439370000000     0.0350465  
H245     H      0.057470000000     0.778990000000     0.447480000000     0.0422074  
H246     H      0.139190000000     0.889600000000     0.521710000000     0.039971   
H247     H      0.092440000000     0.919020000000     0.432950000000     0.0607151  
H248     H      0.141140000000     0.828740000000     0.528150000000     0.0439312  
H249     H      0.078340000000     0.889690000000     0.535490000000     0.0821501  
H250     H      0.129950000000     0.758160000000     0.463000000000     0.0566693  
H251     H      0.054960000000     0.752540000000     0.535920000000     0.0614451  
H252     H      0.054990000000     0.839830000000     0.441170000000     0.0401062  
H253     H      0.044570000000     0.688810000000     0.554080000000     0.0489897  
H254     H      0.064770000000     0.413610000000     0.532480000000     0.023199   
H255     H      0.115600000000     0.172500000000     0.618270000000     0.025687   
H256     H      0.163080000000     0.383690000000     0.557330000000     0.0376887  
H257     H      0.093740000000     0.276700000000     0.638480000000     0.0418446  
H258     H      0.138450000000     0.240090000000     0.633030000000     0.0586263  
H259     H      0.092190000000     0.337750000000     0.641010000000     0.0418249  
H260     H      0.095220000000     0.259450000000     0.539500000000     0.0815567  
H261     H      0.091020000000     0.371570000000     0.544120000000     0.0559021  
H262     H      0.131880000000     0.421860000000     0.639620000000     0.0559446  
H263     H      0.164320000000     0.322760000000     0.554620000000     0.0404212  
H264     H      0.106460000000     0.466150000000     0.626440000000     0.0288526  
H265     H      0.982230000000     0.034670000000     0.901730000000     0.0434381  
H266     H      0.070210000000     0.007520000000     0.643100000000     0.0342871  
H267     H      0.956520000000     0.969540000000     0.804180000000     0.0431528  
H268     H      0.082120000000     0.024580000000     0.752290000000     0.0388696  
H269     H      0.063420000000     0.988690000000     0.700370000000     0.0602837  
H270     H      0.080450000000     0.021690000000     0.811840000000     0.0400277  
H271     H      0.980870000000     0.026510000000     0.705950000000     0.0831456  
H272     H      0.979060000000     0.022850000000     0.843930000000     0.0606054  
H273     H      0.057660000000     0.979250000000     0.862310000000     0.0546331  
H274     H      0.958090000000     0.972110000000     0.744610000000     0.0423035  
H275     H      0.060340000000     0.991650000000     0.920380000000     0.0260774  
H276     H      0.967200000000     0.969480000000     0.412000000000     0.0252762  
H277     H      0.081870000000     0.087460000000     0.146960000000     0.047643   
H278     H      0.952010000000     0.999900000000     0.299100000000     0.0434735  
H279     H      0.083510000000     0.058760000000     0.257400000000     0.0435446  
H280     H      0.079960000000     0.085270000000     0.205780000000     0.0649788  
H281     H      0.075600000000     0.059780000000     0.315960000000     0.0456359  
H282     H      0.974780000000     0.973670000000     0.200410000000     0.0846884  
H283     H      0.970360000000     0.967790000000     0.352800000000     0.0573531  
H284     H      0.044650000000     0.093390000000     0.350580000000     0.0593384  
H285     H      0.959480000000     0.000850000000     0.240560000000     0.0448739  
H286     H      0.040100000000     0.094410000000     0.409230000000     0.0309402  
H287     H      0.613710000000     0.709570000000     0.055170000000     0.025016   
H288     H      0.938850000000     0.893560000000     0.980700000000     0.0240978  
H289     H      0.711910000000     0.790270000000     0.993340000000     0.0411701  
H290     H      0.840020000000     0.815830000000     0.038100000000     0.038351   
H291     H      0.876790000000     0.835490000000     0.988870000000     0.0554093  
H292     H      0.781830000000     0.762690000000     0.061530000000     0.0406744  
H293     H      0.823470000000     0.906660000000     0.982290000000     0.0809459  
H294     H      0.674870000000     0.768770000000     0.044370000000     0.0544971  
H295     H      0.729260000000     0.698690000000     0.043500000000     0.0553398  
H296     H      0.770160000000     0.843290000000     0.969580000000     0.0405481  
H297     H      0.668150000000     0.640640000000     0.054560000000     0.0302604  
H298     H      0.398630000000     0.473340000000     0.976530000000     0.0349214  
H299     H      0.125360000000     0.179940000000     0.967370000000     0.0232995  
H300     H      0.309090000000     0.365100000000     0.027240000000     0.0420085  
H301     H      0.258030000000     0.245460000000     0.961190000000     0.0385657  
H302     H      0.189020000000     0.233230000000     0.957860000000     0.059837   
H303     H      0.319380000000     0.303720000000     0.947730000000     0.0395087  
H304     H      0.220250000000     0.234000000000     0.060350000000     0.0836634  
H305     H      0.335180000000     0.415110000000     0.979920000000     0.0563973  
H306     H      0.386620000000     0.342970000000     0.974010000000     0.0544315  
H307     H      0.247780000000     0.306870000000     0.040660000000     0.0428594  
H308     H      0.449690000000     0.401740000000     0.971170000000     0.0230359  
H309     H      0.634600000000     0.042830000000     0.018950000000     0.0203882  
H310     H      0.877580000000     0.987870000000     0.053660000000     0.045759   
H311     H      0.729270000000     0.017940000000     0.031400000000     0.0392271  
H312     H      0.820150000000     0.074940000000     0.127550000000     0.0417225  
H313     H      0.819160000000     0.988070000000     0.059110000000     0.0624028  
H314     H      0.760250000000     0.076740000000     0.124210000000     0.040324   
H315     H      0.882320000000     0.098400000000     0.108410000000     0.0791589  
H316     H      0.698870000000     0.052800000000     0.022660000000     0.0535274  
H317     H      0.693410000000     0.040140000000     0.127930000000     0.0551927  
H318     H      0.789970000000     0.019820000000     0.033190000000     0.0424395  
H319     H      0.629780000000     0.033270000000     0.123220000000     0.0267575  
H320     H      0.366540000000     0.978850000000     0.020690000000     0.0331638  
H321     H      0.143160000000     0.087440000000     0.956740000000     0.0230566  
H322     H      0.272760000000     0.003820000000     0.034230000000     0.0430234  
H323     H      0.265830000000     0.103070000000     0.959660000000     0.0374203  
H324     H      0.199890000000     0.082040000000     0.950750000000     0.0556003  
H325     H      0.318620000000     0.090350000000     0.955920000000     0.0394534  
H326     H      0.205120000000     0.060860000000     0.054690000000     0.0839654  
H327     H      0.307190000000     0.980270000000     0.008320000000     0.0568425  
H328     H      0.375180000000     0.103970000000     0.984890000000     0.0553243  
H329     H      0.218630000000     0.014300000000     0.036160000000     0.0443547  
H330     H      0.432970000000     0.100900000000     0.995680000000     0.031239   
H331     H      0.038980000000     0.687900000000     0.995910000000     0.0282449  
H332     H      0.917970000000     0.880000000000     0.055180000000     0.0308807  
H333     H      0.035510000000     0.773920000000     0.111750000000     0.0420378  
H334     H      0.949200000000     0.791860000000     0.030010000000     0.0369871  
H335     H      0.917050000000     0.817890000000     0.059710000000     0.055265   
H336     H      0.967590000000     0.743420000000     0.019960000000     0.0380689  
H337     H      0.032230000000     0.878320000000     0.104560000000     0.0839118  
H338     H      0.015290000000     0.732570000000     0.004590000000     0.0531126  
H339     H      0.025980000000     0.715040000000     0.109090000000     0.0598716  
H340     H      0.012300000000     0.816580000000     0.123680000000     0.0427889  
H341     H      0.053970000000     0.676840000000     0.099520000000     0.0544681  
H342     H      0.045300000000     0.416930000000     0.059760000000     0.0391349  
H343     H      0.961230000000     0.126730000000     0.046490000000     0.0374341  
H344     H      0.005640000000     0.321570000000     0.986480000000     0.0516167  
H345     H      0.895850000000     0.196280000000     0.025410000000     0.039603   
H346     H      0.938310000000     0.171920000000     0.044740000000     0.065013   
H347     H      0.905750000000     0.258000000000     0.045100000000     0.0398336  
H348     H      0.960700000000     0.193650000000     0.942110000000     0.0836424  
H349     H      0.028780000000     0.353750000000     0.038520000000     0.0635656  
H350     H      0.908220000000     0.319280000000     0.035920000000     0.0561312  
H351     H      0.996850000000     0.259840000000     0.968150000000     0.0457484  
H352     H      0.925790000000     0.382150000000     0.057930000000     0.0266697  
N1       N      0.539900000000     0.543670000000     0.912140000000    -0.215044   
N2       N      0.554720000000     0.547810000000     0.634010000000    -0.201197   
N3       N      0.577180000000     0.547610000000     0.410790000000    -0.222768   
N4       N      0.519510000000     0.546910000000     0.133760000000    -0.205612   
N5       N      0.555760000000     0.662940000000     0.474600000000    -0.219935   
N6       N      0.527500000000     0.921560000000     0.531880000000    -0.204301   
N7       N      0.503310000000     0.124730000000     0.615010000000    -0.218676   
N8       N      0.497880000000     0.402340000000     0.573060000000    -0.194757   
N9       N      0.514190000000     0.076330000000     0.945590000000    -0.221829   
N10      N      0.531940000000     0.050870000000     0.674560000000    -0.203437   
N11      N      0.514570000000     0.059890000000     0.173740000000    -0.219978   
N12      N      0.516320000000     0.067480000000     0.449530000000    -0.203574   
N13      N      0.545360000000     0.670660000000     0.973250000000    -0.197901   
N14      N      0.494970000000     0.919600000000     0.028270000000    -0.20818    
N15      N      0.474500000000     0.127720000000     0.104090000000    -0.213375   
N16      N      0.494940000000     0.418720000000     0.071110000000    -0.202769   
N17      N      0.647020000000     0.141340000000     0.528180000000    -0.217841   
N18      N      0.940380000000     0.419200000000     0.537510000000    -0.208504   
N19      N      0.169950000000     0.644200000000     0.596270000000    -0.217805   
N20      N      0.447510000000     0.911320000000     0.607110000000    -0.206041   
N21      N      0.942990000000     0.528240000000     0.549340000000    -0.210503   
N22      N      0.659860000000     0.530210000000     0.523210000000    -0.21106    
N23      N      0.152690000000     0.523640000000     0.494710000000    -0.230817   
N24      N      0.426750000000     0.523510000000     0.558580000000    -0.200811   
N25      N      0.042130000000     0.568440000000     0.651870000000    -0.213382   
N26      N      0.002910000000     0.538330000000     0.923840000000    -0.200885   
N27      N      0.015300000000     0.545890000000     0.151880000000    -0.218667   
N28      N      0.038030000000     0.557990000000     0.428980000000    -0.214641   
N29      N      0.905300000000     0.430720000000     0.994050000000    -0.2214     
N30      N      0.629930000000     0.146380000000     0.030590000000    -0.201641   
N31      N      0.150690000000     0.629130000000     0.074000000000    -0.212754   
N32      N      0.397480000000     0.925960000000     0.116980000000    -0.184147   
N33      N      0.936830000000     0.580520000000     0.049900000000    -0.221438   
N34      N      0.660130000000     0.578240000000     0.006630000000    -0.200493   
N35      N      0.123710000000     0.535790000000     0.983590000000    -0.219608   
N36      N      0.397550000000     0.522710000000     0.032440000000    -0.187028   
N37      N      0.648120000000     0.666640000000     0.570760000000    -0.220387   
N38      N      0.928670000000     0.953760000000     0.582180000000    -0.201804   
N39      N      0.437040000000     0.445880000000     0.469080000000    -0.220456   
N40      N      0.151660000000     0.172770000000     0.502130000000    -0.200376   
N41      N      0.656830000000     0.055100000000     0.556010000000    -0.222888   
N42      N      0.922240000000     0.042760000000     0.502970000000    -0.204825   
N43      N      0.145030000000     0.030550000000     0.514540000000    -0.221387   
N44      N      0.423170000000     0.038560000000     0.515710000000    -0.206639   
N45      N      0.062550000000     0.955090000000     0.490710000000    -0.216304   
N46      N      0.081310000000     0.686580000000     0.519460000000    -0.188602   
N47      N      0.090860000000     0.176510000000     0.571110000000    -0.21857    
N48      N      0.084230000000     0.443640000000     0.578370000000    -0.203307   
N49      N      0.030360000000     0.028880000000     0.641200000000    -0.216103   
N50      N      0.021850000000     0.014450000000     0.915170000000    -0.204068   
N51      N      0.027980000000     0.033730000000     0.139050000000    -0.214307   
N52      N      0.004160000000     0.031870000000     0.415010000000    -0.205398   
N53      N      0.917510000000     0.933640000000     0.979490000000    -0.216833   
N54      N      0.636350000000     0.670850000000     0.054160000000    -0.206242   
N55      N      0.134800000000     0.175190000000     0.019480000000    -0.222219   
N56      N      0.428930000000     0.441690000000     0.975590000000    -0.20375    
N57      N      0.914970000000     0.043400000000     0.076820000000    -0.217598   
N58      N      0.627110000000     0.036430000000     0.070760000000    -0.20983    
N59      N      0.139650000000     0.074030000000     0.008240000000    -0.212055   
N60      N      0.404080000000     0.040060000000     0.010470000000    -0.198963   
N61      N      0.975860000000     0.914070000000     0.075410000000    -0.198064   
N62      N      0.047960000000     0.678820000000     0.046940000000    -0.188076   
N63      N      0.975680000000     0.134550000000     0.996240000000    -0.217391   
N64      N      0.986990000000     0.404790000000     0.058740000000    -0.208709   
O1       O      0.015350000000     0.121340000000     0.029320000000    -0.447133   
O2       O      0.981570000000     0.961680000000     0.995160000000    -0.443399   
O3       O      0.008900000000     0.040730000000     0.957580000000    -0.443639   
O4       O      0.944610000000     0.017280000000     0.050440000000    -0.435127   
O5       O      0.044750000000     0.015580000000     0.968220000000    -0.412281   
O6       O      0.981470000000     0.071930000000     0.075820000000    -0.426762   
O7       O      0.954870000000     0.994790000000     0.999730000000    -0.411067   
O8       O      0.998880000000     0.095570000000     0.980000000000    -0.409308   
O9       O      0.050630000000     0.072400000000     0.092980000000    -0.436557   
O10      O      0.080260000000     0.039530000000     0.028950000000    -0.391089   
O11      O      0.073310000000     0.135940000000     0.999190000000    -0.471562   
O12      O      0.951750000000     0.953380000000     0.054910000000    -0.394613   
O13      O      0.015300000000     0.976550000000     0.055860000000    -0.423493   
O14      O      0.086460000000     0.123930000000     0.048250000000    -0.425156   
O15      O      0.999980000000     0.015790000000     0.087360000000    -0.406934   
O16      O      0.088020000000     0.080010000000     0.986780000000    -0.411749   
O17      O      0.019730000000     0.052470000000     0.024580000000    -0.594036   
O18      O      0.028650000000     0.063950000000     0.462970000000    -0.442199   
O19      O      0.047710000000     0.120520000000     0.544150000000    -0.428764   
O20      O      0.954610000000     0.009020000000     0.507270000000    -0.441252   
O21      O      0.126030000000     0.117290000000     0.534600000000    -0.433276   
O22      O      0.987200000000     0.072210000000     0.510550000000    -0.4265     
O23      O      0.091580000000     0.119000000000     0.491480000000    -0.414665   
O24      O      0.086490000000     0.116470000000     0.580980000000    -0.430389   
O25      O      0.995270000000     0.001100000000     0.465460000000    -0.434364   
O26      O      0.117300000000     0.067030000000     0.500160000000    -0.449271   
O27      O      0.963720000000     0.018110000000     0.564500000000    -0.420738   
O28      O      0.027500000000     0.975590000000     0.516150000000    -0.442289   
O29      O      0.059990000000     0.036070000000     0.593230000000    -0.43057    
O30      O      0.025750000000     0.064250000000     0.596500000000    -0.418713   
O31      O      0.057820000000     0.009450000000     0.473560000000    -0.407921   
O32      O      0.104410000000     0.037510000000     0.547390000000    -0.426569   
O33      O      0.986070000000     0.979880000000     0.557720000000    -0.433515   
O34      O      0.041520000000     0.050150000000     0.528250000000    -0.530998   
O35      O      0.970550000000     0.460070000000     0.005020000000    -0.439621   
O36      O      0.062810000000     0.634100000000     0.068480000000    -0.410579   
O37      O      0.955080000000     0.536940000000     0.070020000000    -0.444531   
O38      O      0.019620000000     0.569940000000     0.972610000000    -0.413157   
O39      O      0.993670000000     0.583770000000     0.039090000000    -0.420943   
O40      O      0.020420000000     0.514960000000     0.970180000000    -0.432892   
O41      O      0.050200000000     0.632340000000     0.015960000000    -0.393855   
O42      O      0.939810000000     0.486000000000     0.024500000000    -0.459234   
O43      O      0.077840000000     0.523140000000     0.019010000000    -0.458541   
O44      O      0.024090000000     0.571780000000     0.099600000000    -0.403225   
O45      O      0.970830000000     0.451330000000     0.064910000000    -0.457816   
O46      O      0.107420000000     0.614000000000     0.030360000000    -0.424245   
O47      O      0.085870000000     0.583000000000     0.074960000000    -0.406623   
O48      O      0.028720000000     0.470200000000     0.053600000000    -0.437541   
O49      O      0.087640000000     0.566560000000     0.981600000000    -0.386605   
O50      O      0.995730000000     0.508790000000     0.105710000000    -0.455813   
O51      O      0.021860000000     0.536020000000     0.037600000000    -0.581436   
O52      O      0.989870000000     0.477370000000     0.518860000000    -0.471761   
O53      O      0.052470000000     0.632420000000     0.553210000000    -0.397828   
O54      O      0.990770000000     0.519420000000     0.576430000000    -0.394875   
O55      O      0.079030000000     0.581500000000     0.474240000000    -0.475252   
O56      O      0.006110000000     0.561170000000     0.534670000000    -0.439429   
O57      O      0.032480000000     0.520700000000     0.474620000000    -0.488704   
O58      O      0.093000000000     0.634750000000     0.518680000000    -0.467169   
O59      O      0.996380000000     0.458050000000     0.567200000000    -0.445352   
O60      O      0.089080000000     0.505200000000     0.496460000000    -0.493138   
O61      O      0.037220000000     0.581750000000     0.596870000000    -0.3719     
O62      O      0.071790000000     0.492560000000     0.590220000000    -0.427503   
O63      O      0.143040000000     0.609160000000     0.549800000000    -0.456382   
O64      O      0.106230000000     0.618780000000     0.577920000000    -0.403883   
O65      O      0.051470000000     0.463790000000     0.542540000000    -0.449648   
O66      O      0.131610000000     0.565470000000     0.505040000000    -0.457844   
O67      O      0.066700000000     0.551140000000     0.611000000000    -0.446056   
O68      O      0.062600000000     0.543160000000     0.542680000000    -0.550195   
O69      O      0.436350000000     0.011530000000     0.037460000000    -0.421992   
O70      O      0.495900000000     0.977650000000     0.018210000000    -0.453949   
O71      O      0.529250000000     0.100550000000     0.998040000000    -0.420569   
O72      O      0.460840000000     0.971170000000     0.105060000000    -0.451946   
O73      O      0.498980000000     0.038860000000     0.992440000000    -0.464805   
O74      O      0.415590000000     0.988150000000     0.097410000000    -0.405001   
O75      O      0.509500000000     0.964510000000     0.067600000000    -0.462152   
O76      O      0.466760000000     0.075680000000     0.029720000000    -0.438516   
O77      O      0.479160000000     0.035790000000     0.125530000000    -0.419311   
O78      O      0.578240000000     0.085610000000     0.017930000000    -0.432174   
O79      O      0.513230000000     0.105200000000     0.088320000000    -0.428623   
O80      O      0.573240000000     0.030310000000     0.092390000000    -0.438455   
O81      O      0.571950000000     0.021680000000     0.040370000000    -0.468151   
O82      O      0.451960000000     0.064910000000     0.086270000000    -0.383808   
O83      O      0.533760000000     0.040700000000     0.130390000000    -0.450797   
O84      O      0.572850000000     0.120060000000     0.055730000000    -0.436111   
O85      O      0.513270000000     0.043420000000     0.060360000000    -0.566955   
O86      O      0.457260000000     0.013070000000     0.541450000000    -0.45149    
O87      O      0.518500000000     0.974200000000     0.524010000000    -0.430994   
O88      O      0.538340000000     0.092830000000     0.501030000000    -0.427333   
O89      O      0.507880000000     0.966570000000     0.614690000000    -0.424768   
O90      O      0.511090000000     0.030410000000     0.495450000000    -0.450132   
O91      O      0.470640000000     0.965740000000     0.574350000000    -0.454214   
O92      O      0.550740000000     0.971400000000     0.568390000000    -0.433543   
O93      O      0.484210000000     0.076690000000     0.538890000000    -0.433395   
O94      O      0.496680000000     0.017580000000     0.628770000000    -0.438285   
O95      O      0.592060000000     0.084690000000     0.511120000000    -0.398575   
O96      O      0.539550000000     0.102370000000     0.593820000000    -0.445377   
O97      O      0.607060000000     0.049690000000     0.585160000000    -0.436454   
O98      O      0.594770000000     0.026480000000     0.536360000000    -0.453338   
O99      O      0.478860000000     0.062340000000     0.595460000000    -0.418305   
O100     O      0.559670000000     0.045940000000     0.629210000000    -0.437255   
O101     O      0.591470000000     0.113450000000     0.555060000000    -0.450374   
O102     O      0.532030000000     0.037800000000     0.562570000000    -0.537687   
O103     O      0.492980000000     0.468220000000     0.990360000000    -0.448782   
O104     O      0.519930000000     0.608800000000     0.995570000000    -0.413282   
O105     O      0.432190000000     0.492090000000     0.048220000000    -0.416565   
O106     O      0.534270000000     0.567100000000     0.961240000000    -0.389468   
O107     O      0.463850000000     0.555400000000     0.036640000000    -0.454184   
O108     O      0.553380000000     0.524640000000     0.962650000000    -0.45872    
O109     O      0.581470000000     0.639570000000     0.983380000000    -0.389      
O110     O      0.466860000000     0.504090000000     0.993650000000    -0.439739   
O111     O      0.597820000000     0.534730000000     0.018950000000    -0.443936   
O112     O      0.522570000000     0.580580000000     0.085800000000    -0.425332   
O113     O      0.477390000000     0.461870000000     0.047840000000    -0.407981   
O114     O      0.598570000000     0.607750000000     0.039630000000    -0.438685   
O115     O      0.570370000000     0.637790000000     0.048570000000    -0.425498   
O116     O      0.537790000000     0.477530000000     0.047720000000    -0.43981    
O117     O      0.608570000000     0.586120000000     0.988490000000    -0.389619   
O118     O      0.497020000000     0.518050000000     0.083910000000    -0.447884   
O119     O      0.535510000000     0.543630000000     0.026540000000    -0.62756    
O120     O      0.502500000000     0.474780000000     0.476210000000    -0.45167    
O121     O      0.528860000000     0.602660000000     0.498870000000    -0.434869   
O122     O      0.475010000000     0.509050000000     0.570970000000    -0.392308   
O123     O      0.584440000000     0.577500000000     0.459030000000    -0.462162   
O124     O      0.482560000000     0.549930000000     0.532590000000    -0.450414   
O125     O      0.573390000000     0.517990000000     0.461350000000    -0.439942   
O126     O      0.589600000000     0.632430000000     0.492380000000    -0.440368   
O127     O      0.471050000000     0.479100000000     0.514720000000    -0.416527   
O128     O      0.594940000000     0.505420000000     0.525750000000    -0.459155   
O129     O      0.538200000000     0.568090000000     0.585410000000    -0.445582   
O130     O      0.483870000000     0.452050000000     0.572150000000    -0.397136   
O131     O      0.624810000000     0.609230000000     0.543570000000    -0.470022   
O132     O      0.584830000000     0.628420000000     0.551620000000    -0.433288   
O133     O      0.523220000000     0.454820000000     0.536830000000    -0.493469   
O134     O      0.629260000000     0.563280000000     0.504410000000    -0.468795   
O135     O      0.547500000000     0.518060000000     0.585190000000    -0.432873   
O136     O      0.548600000000     0.545990000000     0.520850000000    -0.532259   


