data_structure

_audit_creation_method RASPA-1.0
_audit_creation_date 2023-6-4
_audit_author_name 'Poobodin Mano'

_cell_length_a    39.7493
_cell_length_b    39.5444
_cell_length_c    40.5492
_cell_angle_alpha 87.1347
_cell_angle_beta  93.8193
_cell_angle_gamma 120.434
_cell_volume      54823.7

_symmetry_cell_setting          triclinic
_symmetry_space_group_name_Hall 'P 1'
_symmetry_space_group_name_H-M  'P 1'
_symmetry_Int_Tables_number     1

_symmetry_equiv_pos_as_xyz 'x,y,z'

loop_
_atom_site_label
_atom_site_type_symbol
_atom_site_fract_x
_atom_site_fract_y
_atom_site_fract_z
_atom_site_charge
C1       C      0.079540000000     0.149130000000     0.004370000000     0.376944   
C2       C      0.999060000000     0.962790000000     0.071370000000     0.489428   
C3       C      0.040620000000     0.048980000000     0.972790000000     0.49153    
C4       C      0.979480000000     0.031000000000     0.076640000000     0.434799   
C5       C      0.061810000000     0.092430000000     0.128530000000     0.437063   
C6       C      0.135470000000     0.068160000000     0.003790000000     0.481857   
C7       C      0.123230000000     0.151830000000     0.076090000000     0.476009   
C8       C      0.106260000000     0.009060000000     0.082080000000     0.475398   
C9       C      0.006860000000     0.997780000000     0.468220000000     0.479887   
C10      C      0.973990000000     0.071750000000     0.601460000000     0.419933   
C11      C      0.926270000000     0.016030000000     0.524710000000     0.481528   
C12      C      0.065660000000     0.087650000000     0.509920000000     0.449226   
C13      C      0.101230000000     0.049730000000     0.573170000000     0.439302   
C14      C      0.913730000000     0.933650000000     0.574820000000     0.470212   
C15      C      0.004350000000     0.924900000000     0.530410000000     0.481059   
C16      C      0.019340000000     0.016830000000     0.630360000000     0.467382   
C17      C      0.018020000000     0.501360000000     0.989820000000     0.446365   
C18      C      0.079820000000     0.660260000000     0.046860000000     0.471157   
C19      C      0.003800000000     0.584020000000     0.066460000000     0.44957    
C20      C      0.093480000000     0.576670000000     0.965090000000     0.466588   
C21      C      0.167730000000     0.596610000000     0.033660000000     0.456917   
C22      C      0.040750000000     0.529620000000     0.118490000000     0.454811   
C23      C      0.048850000000     0.476820000000     0.066040000000     0.447829   
C24      C      0.160350000000     0.650760000000     0.077680000000     0.471177   
C25      C      0.909450000000     0.442760000000     0.528720000000     0.467352   
C26      C      0.042020000000     0.600390000000     0.500620000000     0.447377   
C27      C      0.925960000000     0.516440000000     0.564240000000     0.466054   
C28      C      0.024880000000     0.524500000000     0.462030000000     0.457056   
C29      C      0.053140000000     0.470470000000     0.522220000000     0.463168   
C30      C      0.011640000000     0.539630000000     0.621040000000     0.461185   
C31      C      0.980040000000     0.419210000000     0.561990000000     0.459927   
C32      C      0.083460000000     0.592370000000     0.578910000000     0.459182   
C33      C      0.505630000000     0.092590000000     0.022980000000     0.465628   
C34      C      0.589520000000     0.995540000000     0.006430000000     0.480265   
C35      C      0.579190000000     0.078110000000     0.937040000000     0.504878   
C36      C      0.504180000000     0.005320000000     0.054380000000     0.464705   
C37      C      0.576160000000     0.035390000000     0.114350000000     0.397789   
C38      C      0.659980000000     0.155070000000     0.982700000000     0.485434   
C39      C      0.605110000000     0.164600000000     0.052050000000     0.460699   
C40      C      0.662140000000     0.070550000000     0.057890000000     0.4952     
C41      C      0.414080000000     0.032060000000     0.482150000000     0.483299   
C42      C      0.524580000000     0.959200000000     0.483050000000     0.378952   
C43      C      0.486690000000     0.024770000000     0.438870000000     0.459252   
C44      C      0.435590000000     0.934160000000     0.549050000000     0.443577   
C45      C      0.494210000000     0.022950000000     0.593760000000     0.455069   
C46      C      0.571460000000     0.095620000000     0.482120000000     0.461081   
C47      C      0.470200000000     0.087200000000     0.551710000000     0.474523   
C48      C      0.575520000000     0.011890000000     0.548600000000     0.378107   
C49      C      0.490060000000     0.476660000000     0.053070000000     0.471969   
C50      C      0.587340000000     0.643880000000     0.995010000000     0.460992   
C51      C      0.487650000000     0.548160000000     0.067930000000     0.454746   
C52      C      0.576770000000     0.565860000000     0.963430000000     0.458195   
C53      C      0.638620000000     0.542600000000     0.022790000000     0.462596   
C54      C      0.575040000000     0.599190000000     0.121800000000     0.44234    
C55      C      0.586420000000     0.490140000000     0.074480000000     0.451752   
C56      C      0.639520000000     0.654700000000     0.072100000000     0.467193   
C57      C      0.414710000000     0.433360000000     0.509610000000     0.47868    
C58      C      0.514100000000     0.614350000000     0.509080000000     0.452446   
C59      C      0.397440000000     0.502300000000     0.562560000000     0.461196   
C60      C      0.512660000000     0.528290000000     0.462980000000     0.482312   
C61      C      0.588010000000     0.545350000000     0.527590000000     0.382384   
C62      C      0.483620000000     0.525070000000     0.618240000000     0.457455   
C63      C      0.464790000000     0.427800000000     0.581590000000     0.389194   
C64      C      0.553350000000     0.596200000000     0.585710000000     0.469205   
C65      C      0.528290000000     0.554190000000     0.880440000000    -0.133658   
C66      C      0.496310000000     0.561510000000     0.666970000000     0.0738136  
C67      C      0.511090000000     0.510550000000     0.667490000000     0.0721899  
C68      C      0.509440000000     0.569520000000     0.699990000000    -0.0949839  
C69      C      0.563710000000     0.547800000000     0.769160000000    -0.0374984  
C70      C      0.572900000000     0.553050000000     0.803300000000    -0.0334916  
C71      C      0.533940000000     0.553530000000     0.754050000000    -0.0064229  
C72      C      0.523880000000     0.517350000000     0.700930000000    -0.0946262  
C73      C      0.552610000000     0.564260000000     0.823220000000    -0.0138664  
C74      C      0.597120000000     0.582060000000     0.875160000000    -0.103134   
C75      C      0.523690000000     0.571030000000     0.807880000000    -0.0333084  
C76      C      0.602230000000     0.583150000000     0.909780000000     0.0753194  
C77      C      0.534040000000     0.556340000000     0.914990000000     0.156314   
C78      C      0.514250000000     0.565370000000     0.774040000000    -0.037533   
C79      C      0.522790000000     0.546940000000     0.717850000000     0.0477446  
C80      C      0.559670000000     0.566880000000     0.860020000000     0.0641535  
C81      C      0.498820000000     0.546630000000     0.934420000000    -0.225533   
C82      C      0.590550000000     0.595040000000     0.212070000000    -0.133898   
C83      C      0.530800000000     0.574330000000     0.418170000000     0.0773465  
C84      C      0.498340000000     0.506430000000     0.407020000000     0.0741636  
C85      C      0.535460000000     0.583660000000     0.384510000000    -0.0939141  
C86      C      0.501030000000     0.544120000000     0.300680000000    -0.0380753  
C87      C      0.509200000000     0.553930000000     0.267260000000    -0.0333202  
C88      C      0.529960000000     0.563980000000     0.325720000000    -0.00605201 
C89      C      0.502300000000     0.514780000000     0.372930000000    -0.0930026  
C90      C      0.546640000000     0.583380000000     0.258150000000    -0.014736   
C91      C      0.531590000000     0.596740000000     0.199180000000    -0.105363   
C92      C      0.575430000000     0.603270000000     0.283210000000    -0.0329972  
C93      C      0.540340000000     0.602470000000     0.165750000000     0.0747786  
C94      C      0.598690000000     0.600560000000     0.178360000000     0.151153   
C95      C      0.567160000000     0.593830000000     0.316520000000    -0.0378184  
C96      C      0.521900000000     0.553870000000     0.361380000000     0.0488995  
C97      C      0.556340000000     0.591980000000     0.222680000000     0.0636595  
C98      C      0.637490000000     0.606060000000     0.169180000000    -0.224506   
C99      C      0.496360000000     0.856690000000     0.467670000000    -0.133318   
C100     C      0.557360000000     0.677130000000     0.485170000000     0.0733762  
C101     C      0.489000000000     0.651900000000     0.481920000000     0.073718   
C102     C      0.563730000000     0.713050000000     0.471450000000    -0.0938664  
C103     C      0.566870000000     0.791640000000     0.471170000000    -0.0371224  
C104     C      0.566390000000     0.826780000000     0.468960000000    -0.0329468  
C105     C      0.537350000000     0.758100000000     0.454850000000    -0.00659327 
C106     C      0.494240000000     0.687070000000     0.468260000000    -0.0948349  
C107     C      0.536180000000     0.828850000000     0.450760000000    -0.0146702  
C108     C      0.560310000000     0.900720000000     0.448160000000    -0.104036   
C109     C      0.508530000000     0.796500000000     0.432360000000    -0.0336567  
C110     C      0.556010000000     0.932230000000     0.455900000000     0.0756244  
C111     C      0.492760000000     0.888800000000     0.475840000000     0.154531   
C112     C      0.509440000000     0.761620000000     0.434000000000    -0.0377727  
C113     C      0.531940000000     0.718720000000     0.463740000000     0.0486885  
C114     C      0.530640000000     0.862600000000     0.454690000000     0.0660717  
C115     C      0.454270000000     0.879660000000     0.489130000000    -0.223491   
C116     C      0.499320000000     0.360260000000     0.607780000000    -0.133636   
C117     C      0.433130000000     0.111450000000     0.575360000000     0.0732583  
C118     C      0.502120000000     0.150240000000     0.575120000000     0.0740936  
C119     C      0.431000000000     0.143580000000     0.585930000000    -0.0944395  
C120     C      0.437460000000     0.217410000000     0.615810000000    -0.0378624  
C121     C      0.437230000000     0.252390000000     0.619810000000    -0.0337305  
C122     C      0.464290000000     0.216650000000     0.595290000000    -0.0067646  
C123     C      0.501150000000     0.182390000000     0.586330000000    -0.0952476  
C124     C      0.463910000000     0.287200000000     0.603470000000    -0.0140772  
C125     C      0.429170000000     0.325550000000     0.604150000000    -0.102643   
C126     C      0.490240000000     0.286090000000     0.582730000000    -0.0332583  
C127     C      0.430440000000     0.361470000000     0.599560000000     0.0755012  
C128     C      0.499870000000     0.395930000000     0.603220000000     0.155149   
C129     C      0.490340000000     0.251420000000     0.578630000000    -0.0376308  
C130     C      0.465300000000     0.180110000000     0.590130000000     0.0484214  
C131     C      0.463940000000     0.324600000000     0.606260000000     0.0645776  
C132     C      0.538960000000     0.433310000000     0.607120000000    -0.223533   
C133     C      0.587460000000     0.072460000000     0.847240000000    -0.13386    
C134     C      0.471350000000     0.024710000000     0.646100000000     0.0743789  
C135     C      0.538600000000     0.047700000000     0.640480000000     0.0766877  
C136     C      0.477890000000     0.031730000000     0.679980000000    -0.0957078  
C137     C      0.496580000000     0.024400000000     0.752940000000    -0.0380944  
C138     C      0.504930000000     0.028410000000     0.787030000000    -0.0331849  
C139     C      0.523000000000     0.052230000000     0.730750000000    -0.00657282 
C140     C      0.546140000000     0.054930000000     0.674230000000    -0.094735   
C141     C      0.539950000000     0.060170000000     0.799550000000    -0.0153387  
C142     C      0.522860000000     0.057970000000     0.858160000000    -0.106442   
C143     C      0.565870000000     0.088490000000     0.777450000000    -0.0330664  
C144     C      0.533560000000     0.062640000000     0.891770000000     0.076483   
C145     C      0.597820000000     0.076890000000     0.881230000000     0.151617   
C146     C      0.557440000000     0.084630000000     0.743440000000    -0.037788   
C147     C      0.515570000000     0.046580000000     0.694510000000     0.0497882  
C148     C      0.550090000000     0.063430000000     0.835500000000     0.0659263  
C149     C      0.639580000000     0.088030000000     0.891190000000    -0.215574   
C150     C      0.476740000000     0.979520000000     0.359650000000    -0.135062   
C151     C      0.587970000000     0.059680000000     0.168400000000     0.0697005  
C152     C      0.556500000000     0.991030000000     0.160610000000     0.0690259  
C153     C      0.580270000000     0.053890000000     0.201700000000    -0.0955725  
C154     C      0.569230000000     0.035280000000     0.273810000000    -0.0379477  
C155     C      0.554280000000     0.035780000000     0.303760000000    -0.0322927  
C156     C      0.544590000000     0.010240000000     0.248550000000    -0.00665561 
C157     C      0.547680000000     0.984060000000     0.194040000000    -0.0927924  
C158     C      0.514480000000     0.010920000000     0.309280000000    -0.0152273  
C159     C      0.508450000000     0.049610000000     0.352850000000    -0.106364   
C160     C      0.490220000000     0.984090000000     0.284930000000    -0.0324019  
C161     C      0.499560000000     0.052120000000     0.384950000000     0.0835302  
C162     C      0.468060000000     0.982760000000     0.391910000000     0.162794   
C163     C      0.505130000000     0.983860000000     0.254710000000    -0.0372959  
C164     C      0.558620000000     0.015800000000     0.214680000000     0.0475966  
C165     C      0.498960000000     0.013240000000     0.340680000000     0.0692405  
C166     C      0.442360000000     0.945100000000     0.410650000000    -0.226763   
C167     C      0.580760000000     0.912940000000     0.959560000000    -0.132911   
C168     C      0.553280000000     0.677030000000     0.976750000000     0.0702685  
C169     C      0.622420000000     0.710740000000     0.977340000000     0.0758916  
C170     C      0.553440000000     0.712260000000     0.970970000000    -0.0961062  
C171     C      0.562480000000     0.792400000000     0.952690000000    -0.0379978  
C172     C      0.561470000000     0.826890000000     0.956590000000    -0.0334382  
C173     C      0.590100000000     0.785890000000     0.970990000000    -0.00708531 
C174     C      0.623670000000     0.746480000000     0.971600000000    -0.0960655  
C175     C      0.587780000000     0.855320000000     0.979130000000    -0.0148088  
C176     C      0.587570000000     0.902380000000     0.017780000000    -0.105321   
C177     C      0.616010000000     0.849250000000     0.996690000000    -0.0334721  
C178     C      0.587180000000     0.936520000000     0.023720000000     0.0780609  
C179     C      0.580310000000     0.947450000000     0.966020000000     0.15286    
C180     C      0.617190000000     0.815040000000     0.992660000000    -0.0375236  
C181     C      0.589010000000     0.747780000000     0.969950000000     0.0488486  
C182     C      0.585240000000     0.890650000000     0.985450000000     0.0651398  
C183     C      0.573200000000     0.968560000000     0.936600000000    -0.220295   
C184     C      0.642490000000     0.252710000000     0.104060000000    -0.131179   
C185     C      0.599990000000     0.442320000000     0.057210000000     0.0795418  
C186     C      0.622100000000     0.467920000000     0.111000000000     0.0714039  
C187     C      0.615650000000     0.418060000000     0.062170000000    -0.0968223  
C188     C      0.670720000000     0.386650000000     0.073840000000    -0.0387951  
C189     C      0.671950000000     0.352340000000     0.070100000000    -0.0339659  
C190     C      0.646920000000     0.388170000000     0.097170000000    -0.00792549 
C191     C      0.637310000000     0.442640000000     0.117240000000    -0.0951725  
C192     C      0.649450000000     0.318790000000     0.089670000000    -0.0146231  
C193     C      0.634500000000     0.268550000000     0.047370000000    -0.104689   
C194     C      0.628900000000     0.321710000000     0.115330000000    -0.0332896  
C195     C      0.623630000000     0.230500000000     0.038910000000     0.0777135  
C196     C      0.632260000000     0.214460000000     0.094980000000     0.152077   
C197     C      0.627590000000     0.356140000000     0.119010000000    -0.0377758  
C198     C      0.634170000000     0.417520000000     0.092400000000     0.0501358  
C199     C      0.643000000000     0.279830000000     0.080330000000     0.064522   
C200     C      0.633260000000     0.187560000000     0.122470000000    -0.219894   
C201     C      0.809800000000     0.357900000000     0.529410000000    -0.135422   
C202     C      0.595350000000     0.162270000000     0.470390000000     0.0848128  
C203     C      0.634180000000     0.134430000000     0.459940000000     0.0779403  
C204     C      0.626280000000     0.199700000000     0.464870000000    -0.100897   
C205     C      0.732650000000     0.258350000000     0.449690000000    -0.0377027  
C206     C      0.765930000000     0.294190000000     0.458090000000    -0.0328861  
C207     C      0.698130000000     0.244710000000     0.466480000000    -0.00704876 
C208     C      0.666840000000     0.172090000000     0.456160000000    -0.0954297  
C209     C      0.765140000000     0.316770000000     0.483470000000    -0.0154806  
C210     C      0.826850000000     0.380090000000     0.473500000000    -0.107919   
C211     C      0.730270000000     0.303800000000     0.499250000000    -0.0329195  
C212     C      0.861620000000     0.411800000000     0.485620000000     0.076103   
C213     C      0.844720000000     0.390220000000     0.541130000000     0.157529   
C214     C      0.697410000000     0.268170000000     0.491140000000    -0.0368899  
C215     C      0.663400000000     0.205270000000     0.460680000000     0.0520615  
C216     C      0.801080000000     0.352150000000     0.495470000000     0.0674105  
C217     C      0.850350000000     0.395920000000     0.578170000000    -0.221994   
C218     C      0.374690000000     0.843980000000     0.598180000000    -0.132462   
C219     C      0.120680000000     0.657410000000     0.598680000000     0.0755255  
C220     C      0.150810000000     0.619280000000     0.594930000000     0.0729993  
C221     C      0.156980000000     0.690870000000     0.604910000000    -0.0956872  
C222     C      0.232440000000     0.759090000000     0.584370000000    -0.0372676  
C223     C      0.268450000000     0.791960000000     0.578000000000    -0.033694   
C224     C      0.230120000000     0.726080000000     0.601260000000    -0.00681683 
C225     C      0.187740000000     0.652420000000     0.600200000000    -0.0946145  
C226     C      0.303450000000     0.792770000000     0.587680000000    -0.0144289  
C227     C      0.343040000000     0.842570000000     0.545330000000    -0.106314   
C228     C      0.301530000000     0.760740000000     0.605960000000    -0.0336629  
C229     C      0.375930000000     0.877320000000     0.536530000000     0.0726488  
C230     C      0.408310000000     0.879090000000     0.588500000000     0.151753   
C231     C      0.265200000000     0.727720000000     0.612720000000    -0.0376766  
C232     C      0.191360000000     0.689290000000     0.603580000000     0.0486809  
C233     C      0.341180000000     0.826470000000     0.577000000000     0.0636602  
C234     C      0.442680000000     0.897450000000     0.613270000000    -0.22719    
C235     C      0.840230000000     0.524470000000     0.536050000000    -0.13807    
C236     C      0.616420000000     0.505690000000     0.538550000000     0.071296   
C237     C      0.657270000000     0.574900000000     0.536960000000     0.0671894  
C238     C      0.648310000000     0.500950000000     0.546380000000    -0.0971098  
C239     C      0.749950000000     0.550440000000     0.578870000000    -0.0385591  
C240     C      0.782070000000     0.544890000000     0.583740000000    -0.0331761  
C241     C      0.719750000000     0.528160000000     0.555470000000    -0.00710726 
C242     C      0.690140000000     0.571180000000     0.544890000000    -0.0937876  
C243     C      0.784460000000     0.517340000000     0.565000000000    -0.0165757  
C244     C      0.835790000000     0.505600000000     0.593520000000    -0.107481   
C245     C      0.753920000000     0.494580000000     0.542220000000    -0.0334022  
C246     C      0.870210000000     0.504330000000     0.592030000000     0.0736534  
C247     C      0.874670000000     0.523270000000     0.534950000000     0.158949   
C248     C      0.721890000000     0.499860000000     0.537540000000    -0.0382713  
C249     C      0.685720000000     0.533760000000     0.549430000000     0.0477685  
C250     C      0.820820000000     0.515960000000     0.565280000000     0.067949   
C251     C      0.891930000000     0.530490000000     0.501270000000    -0.228986   
C252     C      0.290270000000     0.441160000000     0.567800000000    -0.133333   
C253     C      0.070670000000     0.429280000000     0.496210000000     0.0742234  
C254     C      0.092200000000     0.448760000000     0.551660000000     0.0759919  
C255     C      0.096440000000     0.415060000000     0.495090000000    -0.096415   
C256     C      0.186530000000     0.449020000000     0.501500000000    -0.0378984  
C257     C      0.225170000000     0.458140000000     0.506160000000    -0.0322886  
C258     C      0.157350000000     0.418260000000     0.519520000000    -0.00692936 
C259     C      0.116870000000     0.433430000000     0.551890000000    -0.0954114  
C260     C      0.235620000000     0.435800000000     0.528170000000    -0.0149846  
C261     C      0.306600000000     0.475030000000     0.515330000000    -0.106989   
C262     C      0.205390000000     0.402450000000     0.543740000000    -0.0330744  
C263     C      0.345770000000     0.493150000000     0.525470000000     0.0822622  
C264     C      0.330390000000     0.458160000000     0.576880000000     0.157291   
C265     C      0.166710000000     0.394320000000     0.540040000000    -0.0393615  
C266     C      0.120960000000     0.418700000000     0.522800000000     0.0496763  
C267     C      0.277850000000     0.449760000000     0.536860000000     0.0646338  
C268     C      0.341500000000     0.448700000000     0.611070000000    -0.227669   
C269     C      0.090440000000     0.549720000000     0.878070000000    -0.132793   
C270     C      0.020420000000     0.577860000000     0.668230000000     0.0732914  
C271     C      0.043080000000     0.532630000000     0.670150000000     0.0752499  
C272     C      0.030280000000     0.584940000000     0.702080000000    -0.0948781  
C273     C      0.070940000000     0.603450000000     0.772300000000    -0.037802   
C274     C      0.079010000000     0.605410000000     0.806510000000    -0.0330916  
C275     C      0.052550000000     0.567120000000     0.756610000000    -0.00686295 
C276     C      0.053460000000     0.539170000000     0.703510000000    -0.0961979  
C277     C      0.068700000000     0.571060000000     0.825560000000    -0.0150508  
C278     C      0.069220000000     0.596480000000     0.880630000000    -0.106619   
C279     C      0.049650000000     0.534750000000     0.809850000000    -0.0328793  
C280     C      0.075220000000     0.596790000000     0.914750000000     0.0784549  
C281     C      0.096420000000     0.550370000000     0.912750000000     0.153715   
C282     C      0.041600000000     0.532800000000     0.775820000000    -0.0378459  
C283     C      0.045790000000     0.564360000000     0.720220000000     0.0496526  
C284     C      0.076670000000     0.572750000000     0.861860000000     0.0664786  
C285     C      0.110470000000     0.523750000000     0.928140000000    -0.221531   
C286     C      0.991290000000     0.490980000000     0.197040000000    -0.13288    
C287     C      0.060290000000     0.535950000000     0.413480000000     0.0742148  
C288     C      0.993120000000     0.516490000000     0.409000000000     0.0721637  
C289     C      0.060540000000     0.533130000000     0.379240000000    -0.0952624  
C290     C      0.044380000000     0.497800000000     0.310970000000    -0.037863   
C291     C      0.042890000000     0.492160000000     0.277040000000    -0.0336727  
C292     C      0.024640000000     0.515120000000     0.323510000000    -0.00709366 
C293     C      0.992340000000     0.513410000000     0.374890000000    -0.0961265  
C294     C      0.021570000000     0.503640000000     0.254920000000    -0.015041   
C295     C      0.060230000000     0.516250000000     0.205450000000    -0.10592    
C296     C      0.001110000000     0.520120000000     0.267510000000    -0.0333512  
C297     C      0.063900000000     0.521870000000     0.171540000000     0.075316   
C298     C      0.995500000000     0.496090000000     0.162560000000     0.151554   
C299     C      0.002710000000     0.525900000000     0.301400000000    -0.0378932  
C300     C      0.026040000000     0.520970000000     0.359600000000     0.0490551  
C301     C      0.024040000000     0.502530000000     0.218700000000     0.0648998  
C302     C      0.958680000000     0.482160000000     0.140750000000    -0.220037   
C303     C      0.762850000000     0.224290000000     0.965850000000    -0.132993   
C304     C      0.953180000000     0.473120000000     0.966550000000     0.0683764  
C305     C      0.985160000000     0.436170000000     0.969550000000     0.07006    
C306     C      0.917280000000     0.439520000000     0.959300000000    -0.0960817  
C307     C      0.843700000000     0.362590000000     0.939560000000    -0.0380351  
C308     C      0.806870000000     0.328490000000     0.941490000000    -0.0340022  
C309     C      0.876060000000     0.366100000000     0.958940000000    -0.00774746 
C310     C      0.949670000000     0.401880000000     0.962410000000    -0.0969946  
C311     C      0.801700000000     0.297250000000     0.962820000000    -0.0143598  
C312     C      0.727840000000     0.259110000000     0.964850000000    -0.104201   
C313     C      0.833990000000     0.301130000000     0.982430000000    -0.034225   
C314     C      0.693100000000     0.223270000000     0.969240000000     0.0774958  
C315     C      0.727880000000     0.188800000000     0.969930000000     0.153121   
C316     C      0.870580000000     0.334950000000     0.980480000000    -0.038197   
C317     C      0.914820000000     0.402950000000     0.959000000000     0.0464648  
C318     C      0.763460000000     0.259920000000     0.964290000000     0.0646306  
C319     C      0.729770000000     0.151580000000     0.967970000000    -0.212318   
C320     C      0.253850000000     0.718310000000     0.122670000000    -0.130971   
C321     C      0.441600000000     0.965000000000     0.077490000000     0.0745785  
C322     C      0.472140000000     0.936290000000     0.051170000000     0.0799377  
C323     C      0.411050000000     0.927550000000     0.086410000000    -0.0917434  
C324     C      0.374450000000     0.819970000000     0.070540000000    -0.0368689  
C325     C      0.343280000000     0.782480000000     0.076500000000    -0.0334372  
C326     C      0.379700000000     0.852690000000     0.087630000000    -0.00551655 
C327     C      0.443650000000     0.899020000000     0.061200000000    -0.0938717  
C328     C      0.314680000000     0.776230000000     0.098360000000    -0.0143578  
C329     C      0.259670000000     0.727170000000     0.063890000000    -0.107888   
C330     C      0.320620000000     0.807860000000     0.117160000000    -0.0329134  
C331     C      0.222160000000     0.696070000000     0.059520000000     0.0863519  
C332     C      0.215440000000     0.685750000000     0.117550000000     0.152422   
C333     C      0.353020000000     0.845560000000     0.112160000000    -0.0370994  
C334     C      0.411870000000     0.893540000000     0.078760000000     0.048341   
C335     C      0.275880000000     0.739630000000     0.095520000000     0.0662147  
C336     C      0.192440000000     0.664510000000     0.147420000000    -0.22336    
C337     C      0.915610000000     0.581490000000     0.032860000000    -0.137795   
C338     C      0.685700000000     0.538550000000     0.058420000000     0.0783801  
C339     C      0.672970000000     0.512050000000     0.004790000000     0.0714245  
C340     C      0.717050000000     0.532540000000     0.064140000000    -0.0957125  
C341     C      0.781460000000     0.508750000000     0.066380000000    -0.0394168  
C342     C      0.821370000000     0.522230000000     0.072910000000    -0.0330882  
C343     C      0.769300000000     0.526720000000     0.041400000000    -0.0074161  
C344     C      0.705960000000     0.507620000000     0.009060000000    -0.0956064  
C345     C      0.849770000000     0.554610000000     0.055140000000    -0.0154216  
C346     C      0.910050000000     0.567530000000     0.091200000000    -0.105311   
C347     C      0.837080000000     0.572790000000     0.030630000000    -0.0327625  
C348     C      0.949490000000     0.577420000000     0.093680000000     0.0725288  
C349     C      0.954880000000     0.592180000000     0.036030000000     0.159911   
C350     C      0.797460000000     0.558620000000     0.023510000000    -0.0382433  
C351     C      0.728890000000     0.519160000000     0.038760000000     0.0490314  
C352     C      0.892300000000     0.568120000000     0.060160000000     0.0650911  
C353     C      0.978510000000     0.609880000000     0.005610000000    -0.231137   
C354     C      0.397080000000     0.544690000000     0.039920000000    -0.138039   
C355     C      0.214900000000     0.596870000000     0.071950000000     0.076369   
C356     C      0.232730000000     0.620710000000     0.017290000000     0.0701348  
C357     C      0.249480000000     0.596570000000     0.078590000000    -0.0956982  
C358     C      0.333160000000     0.606880000000     0.082970000000    -0.0387856  
C359     C      0.358400000000     0.591810000000     0.088130000000    -0.0327227  
C360     C      0.304090000000     0.592730000000     0.057290000000    -0.00698257 
C361     C      0.267200000000     0.619120000000     0.022660000000    -0.0953094  
C362     C      0.354330000000     0.561730000000     0.068160000000    -0.0153856  
C363     C      0.402900000000     0.546190000000     0.099200000000    -0.104696   
C364     C      0.323790000000     0.546440000000     0.043620000000    -0.0330688  
C365     C      0.435130000000     0.540670000000     0.098340000000     0.0754849  
C366     C      0.429050000000     0.539250000000     0.039570000000     0.162184   
C367     C      0.299400000000     0.562120000000     0.037960000000    -0.0384436  
C368     C      0.274800000000     0.605320000000     0.053250000000     0.0486155  
C369     C      0.384530000000     0.549860000000     0.069550000000     0.0663953  
C370     C      0.439660000000     0.533500000000     0.005910000000    -0.230178   
C371     C      0.655700000000     0.658070000000     0.615490000000    -0.132291   
C372     C      0.854020000000     0.907140000000     0.602490000000     0.0740032  
C373     C      0.874060000000     0.864760000000     0.583190000000     0.0731697  
C374     C      0.818340000000     0.874770000000     0.611480000000    -0.0951732  
C375     C      0.738060000000     0.800400000000     0.596100000000    -0.0380185  
C376     C      0.701670000000     0.766070000000     0.597480000000    -0.0319951  
C377     C      0.771390000000     0.801950000000     0.611580000000    -0.00651621 
C378     C      0.839280000000     0.831890000000     0.592670000000    -0.0954662  
C379     C      0.697320000000     0.732470000000     0.615060000000    -0.0139023  
C380     C      0.623770000000     0.695900000000     0.610660000000    -0.104734   
C381     C      0.730710000000     0.734740000000     0.631660000000    -0.0324673  
C382     C      0.588410000000     0.661660000000     0.603950000000     0.0819414  
C383     C      0.619220000000     0.623590000000     0.610270000000     0.161527   
C384     C      0.767370000000     0.768920000000     0.629590000000    -0.0384244  
C385     C      0.810500000000     0.836650000000     0.606130000000     0.0486469  
C386     C      0.658580000000     0.695030000000     0.614240000000     0.0663636  
C387     C      0.617230000000     0.584670000000     0.616840000000    -0.228164   
C388     C      0.126680000000     0.191080000000     0.484850000000    -0.133372   
C389     C      0.380040000000     0.372410000000     0.481630000000     0.0750192  
C390     C      0.345520000000     0.400700000000     0.501870000000     0.0764368  
C391     C      0.344780000000     0.338450000000     0.473010000000    -0.0942182  
C392     C      0.268520000000     0.261840000000     0.484180000000    -0.0382918  
C393     C      0.232400000000     0.226980000000     0.483070000000    -0.0332064  
C394     C      0.271330000000     0.297800000000     0.474560000000    -0.00617495 
C395     C      0.309830000000     0.367460000000     0.493370000000    -0.0941606  
C396     C      0.198040000000     0.227010000000     0.472090000000    -0.0148975  
C397     C      0.154950000000     0.153740000000     0.468640000000    -0.106134   
C398     C      0.201090000000     0.262800000000     0.461270000000    -0.0328134  
C399     C      0.120930000000     0.119410000000     0.477140000000     0.0762202  
C400     C      0.092290000000     0.155960000000     0.492650000000     0.1528     
C401     C      0.237250000000     0.297760000000     0.462580000000    -0.0382395  
C402     C      0.309050000000     0.335290000000     0.479570000000     0.0488087  
C403     C      0.159210000000     0.190280000000     0.474470000000     0.0632369  
C404     C      0.057740000000     0.159190000000     0.501740000000    -0.222463   
C405     C      0.827360000000     0.000090000000     0.506120000000    -0.13545    
C406     C      0.620610000000     0.992810000000     0.571370000000     0.071294   
C407     C      0.642960000000     0.051290000000     0.539070000000     0.0757248  
C408     C      0.657370000000     0.996000000000     0.570740000000    -0.091598   
C409     C      0.748450000000     0.027610000000     0.572190000000    -0.0395993  
C410     C      0.783290000000     0.029030000000     0.565560000000    -0.0322935  
C411     C      0.723140000000     0.027010000000     0.546100000000    -0.00578329 
C412     C      0.679590000000     0.055030000000     0.537560000000    -0.0931131  
C413     C      0.792820000000     0.028920000000     0.532770000000    -0.01681    
C414     C      0.865010000000     0.057210000000     0.539270000000    -0.10856    
C415     C      0.767210000000     0.027830000000     0.506760000000    -0.0324735  
C416     C      0.898080000000     0.054480000000     0.535190000000     0.0787444  
C417     C      0.861070000000     0.997680000000     0.502540000000     0.157073   
C418     C      0.732900000000     0.027280000000     0.513360000000    -0.0388819  
C419     C      0.686640000000     0.026480000000     0.552420000000     0.0479533  
C420     C      0.828900000000     0.028870000000     0.525840000000     0.0670231  
C421     C      0.857570000000     0.967070000000     0.479430000000    -0.220857   
C422     C      0.196690000000     0.091260000000     0.535720000000    -0.135454   
C423     C      0.385270000000     0.069570000000     0.462460000000     0.0775664  
C424     C      0.344980000000     0.001980000000     0.475370000000     0.0734666  
C425     C      0.353300000000     0.075110000000     0.462040000000    -0.0977157  
C426     C      0.246340000000     0.024510000000     0.472080000000    -0.0382174  
C427     C      0.217050000000     0.027550000000     0.486460000000    -0.0336474  
C428     C      0.285800000000     0.051160000000     0.480100000000    -0.00738394 
C429     C      0.312300000000     0.006420000000     0.475070000000    -0.0971033  
C430     C      0.226670000000     0.057070000000     0.509370000000    -0.0153622  
C431     C      0.165970000000     0.021130000000     0.540550000000    -0.107924   
C432     C      0.266120000000     0.085120000000     0.515810000000    -0.0332323  
C433     C      0.136420000000     0.020360000000     0.557540000000     0.0643062  
C434     C      0.166820000000     0.089870000000     0.553600000000     0.154921   
C435     C      0.295380000000     0.082210000000     0.501290000000    -0.0376933  
C436     C      0.316850000000     0.043850000000     0.470540000000     0.0504137  
C437     C      0.195800000000     0.056610000000     0.528340000000     0.0641223  
C438     C      0.171440000000     0.128620000000     0.563030000000    -0.223288   
C439     C      0.040360000000     0.855690000000     0.542470000000    -0.135067   
C440     C      0.020220000000     0.640850000000     0.474150000000     0.0712524  
C441     C      0.084520000000     0.669620000000     0.498420000000     0.0729107  
C442     C      0.022780000000     0.677310000000     0.471330000000    -0.0962183  
C443     C      0.044870000000     0.765360000000     0.465660000000    -0.0389992  
C444     C      0.036720000000     0.794700000000     0.472800000000    -0.0329546  
C445     C      0.053220000000     0.745200000000     0.491320000000    -0.00701068 
C446     C      0.087570000000     0.706540000000     0.497100000000    -0.095785   
C447     C      0.035580000000     0.803660000000     0.505810000000    -0.0150592  
C448     C      0.998690000000     0.839740000000     0.493210000000    -0.10534    
C449     C      0.044300000000     0.783340000000     0.531330000000    -0.0327136  
C450     C      0.990470000000     0.868940000000     0.500430000000     0.0784531  
C451     C      0.030220000000     0.883530000000     0.550060000000     0.156464   
C452     C      0.053470000000     0.754880000000     0.524140000000    -0.038743   
C453     C      0.055710000000     0.710130000000     0.484770000000     0.0479609  
C454     C      0.025010000000     0.833610000000     0.513700000000     0.0651717  
C455     C      0.042600000000     0.900940000000     0.584200000000    -0.224794   
C456     C      0.924440000000     0.124800000000     0.624900000000    -0.134289   
C457     C      0.957850000000     0.352240000000     0.551840000000     0.0755528  
C458     C      0.983070000000     0.377780000000     0.605240000000     0.0726371  
C459     C      0.949950000000     0.315040000000     0.562920000000    -0.0954419  
C460     C      0.921170000000     0.234850000000     0.594630000000    -0.0379378  
C461     C      0.919660000000     0.199030000000     0.601240000000    -0.0326882  
C462     C      0.952430000000     0.269940000000     0.607650000000    -0.00677037 
C463     C      0.975050000000     0.340870000000     0.617260000000    -0.0958088  
C464     C      0.949280000000     0.197710000000     0.621090000000    -0.0156807  
C465     C      0.990920000000     0.169880000000     0.611800000000    -0.108413   
C466     C      0.978320000000     0.232060000000     0.636610000000    -0.0334046  
C467     C      0.996060000000     0.138500000000     0.606960000000     0.0796455  
C468     C      0.930560000000     0.093010000000     0.620690000000     0.153353   
C469     C      0.980050000000     0.267780000000     0.629820000000    -0.0378355  
C470     C      0.958380000000     0.308850000000     0.596040000000     0.0490689  
C471     C      0.954760000000     0.163440000000     0.620140000000     0.0666104  
C472     C      0.896820000000     0.052080000000     0.626960000000    -0.225912   
C473     C      0.058510000000     0.037080000000     0.715850000000    -0.135736   
C474     C      0.000980000000     0.012100000000     0.926680000000     0.0752891  
C475     C      0.052630000000     0.077330000000     0.918710000000     0.0764748  
C476     C      0.995370000000     0.006570000000     0.892590000000    -0.0969604  
C477     C      0.010250000000     0.992190000000     0.824170000000    -0.036853   
C478     C      0.011540000000     0.986100000000     0.790710000000    -0.0333357  
C479     C      0.018890000000     0.029170000000     0.835110000000    -0.00737757 
C480     C      0.048300000000     0.072610000000     0.884530000000    -0.0951129  
C481     C      0.022270000000     0.017040000000     0.767660000000    -0.0153145  
C482     C      0.992940000000     0.982170000000     0.714520000000    -0.105356   
C483     C      0.030380000000     0.053760000000     0.778320000000    -0.0329679  
C484     C      0.993550000000     0.982020000000     0.680160000000     0.0802775  
C485     C      0.058920000000     0.035600000000     0.681380000000     0.157885   
C486     C      0.028360000000     0.059680000000     0.811590000000    -0.0371901  
C487     C      0.020290000000     0.036420000000     0.871040000000     0.049788   
C488     C      0.024780000000     0.011480000000     0.732350000000     0.0671334  
C489     C      0.097440000000     0.061730000000     0.665510000000    -0.222632   
C490     C      0.026660000000     0.088140000000     0.211870000000    -0.133194   
C491     C      0.046490000000     0.014520000000     0.421790000000     0.0759201  
C492     C      0.988000000000     0.017020000000     0.417060000000     0.0748358  
C493     C      0.053900000000     0.026810000000     0.388820000000    -0.0968291  
C494     C      0.046420000000     0.027550000000     0.313620000000    -0.0382082  
C495     C      0.051890000000     0.038160000000     0.280220000000    -0.0334678  
C496     C      0.034580000000     0.046620000000     0.334310000000    -0.00720977 
C497     C      0.994640000000     0.029580000000     0.384140000000    -0.096867   
C498     C      0.045990000000     0.068340000000     0.266710000000    -0.0149782  
C499     C      0.082530000000     0.079800000000     0.215690000000    -0.106115   
C500     C      0.034240000000     0.087520000000     0.287460000000    -0.0331116  
C501     C      0.085860000000     0.086260000000     0.181770000000     0.0688241  
C502     C      0.030940000000     0.095360000000     0.177540000000     0.151874   
C503     C      0.028510000000     0.076710000000     0.320900000000    -0.0378847  
C504     C      0.027790000000     0.034470000000     0.369590000000     0.0501712  
C505     C      0.051900000000     0.079240000000     0.231040000000     0.0635177  
C506     C      0.003350000000     0.106220000000     0.158950000000    -0.222585   
C507     C      0.914600000000     0.903760000000     0.123570000000    -0.132719   
C508     C      0.702380000000     0.688930000000     0.098740000000     0.0718044  
C509     C      0.663640000000     0.718980000000     0.092040000000     0.0745362  
C510     C      0.734270000000     0.723770000000     0.109930000000    -0.0963953  
C511     C      0.773800000000     0.827770000000     0.093510000000    -0.0371114  
C512     C      0.811290000000     0.860080000000     0.090460000000    -0.0328313  
C513     C      0.767600000000     0.796260000000     0.114940000000    -0.00691219 
C514     C      0.695150000000     0.754560000000     0.103100000000    -0.0962903  
C515     C      0.843330000000     0.861180000000     0.108410000000    -0.0145724  
C516     C      0.892890000000     0.900860000000     0.066630000000    -0.104448   
C517     C      0.836340000000     0.831590000000     0.132310000000    -0.0328026  
C518     C      0.931530000000     0.924570000000     0.058230000000     0.0807579  
C519     C      0.953560000000     0.926710000000     0.114610000000     0.153059   
C520     C      0.798800000000     0.799740000000     0.135810000000    -0.0380002  
C521     C      0.731450000000     0.757620000000     0.110870000000     0.0494611  
C522     C      0.883970000000     0.890040000000     0.099610000000     0.0671178  
C523     C      0.984550000000     0.937950000000     0.142440000000    -0.210976   
C524     C      0.398130000000     0.414650000000     0.095010000000    -0.135056   
C525     C      0.190980000000     0.189010000000     0.088330000000     0.0828455  
C526     C      0.152830000000     0.219840000000     0.086480000000     0.0773078  
C527     C      0.225080000000     0.225150000000     0.089750000000    -0.0967693  
C528     C      0.262650000000     0.325870000000     0.061310000000    -0.0369336  
C529     C      0.299000000000     0.359200000000     0.055650000000    -0.0327428  
C530     C      0.259520000000     0.297710000000     0.085460000000    -0.00718727 
C531     C      0.186600000000     0.256770000000     0.087520000000    -0.096901   
C532     C      0.332500000000     0.364620000000     0.074090000000    -0.0151427  
C533     C      0.385010000000     0.411540000000     0.036350000000    -0.105615   
C534     C      0.328780000000     0.336620000000     0.098620000000    -0.0322675  
C535     C      0.424550000000     0.438640000000     0.032170000000     0.0753918  
C536     C      0.437870000000     0.439330000000     0.090500000000     0.157129   
C537     C      0.292750000000     0.304030000000     0.104580000000    -0.0376836  
C538     C      0.223150000000     0.259560000000     0.088190000000     0.0524823  
C539     C      0.371820000000     0.398490000000     0.068130000000     0.0678864  
C540     C      0.463970000000     0.449260000000     0.121980000000    -0.214782   
C541     C      0.724440000000     0.046830000000     0.115500000000    -0.134497   
C542     C      0.917180000000     0.019160000000     0.056620000000     0.0726987  
C543     C      0.926500000000     0.005120000000     0.112870000000     0.0717137  
C544     C      0.880470000000     0.013270000000     0.062510000000    -0.095186   
C545     C      0.798170000000     0.987530000000     0.080600000000    -0.038019   
C546     C      0.769080000000     0.997460000000     0.080050000000    -0.0330223  
C547     C      0.831910000000     0.007230000000     0.101340000000    -0.00779664 
C548     C      0.890150000000     0.000220000000     0.119910000000    -0.0961875  
C549     C      0.773080000000     0.027320000000     0.100190000000    -0.01615    
C550     C      0.746840000000     0.058440000000     0.060410000000    -0.109851   
C551     C      0.804890000000     0.044390000000     0.123280000000    -0.0334806  
C552     C      0.720170000000     0.070250000000     0.050970000000     0.0830381  
C553     C      0.697380000000     0.059140000000     0.105350000000     0.15821    
C554     C      0.834160000000     0.034360000000     0.123870000000    -0.0377497  
C555     C      0.867270000000     0.005470000000     0.094660000000     0.0482931  
C556     C      0.747920000000     0.044670000000     0.092430000000     0.0676833  
C557     C      0.672490000000     0.059920000000     0.131420000000    -0.230261   
C558     C      0.209270000000     0.042160000000     0.983900000000    -0.130022   
C559     C      0.448890000000     0.079670000000     0.989380000000     0.0722721  
C560     C      0.452770000000     0.094540000000     0.045780000000     0.0740496  
C561     C      0.412290000000     0.076870000000     0.985000000000    -0.0927394  
C562     C      0.327470000000     0.056260000000     0.983250000000    -0.0374613  
C563     C      0.291500000000     0.055000000000     0.978830000000    -0.0330586  
C564     C      0.355950000000     0.080370000000     0.007280000000    -0.00553447 
C565     C      0.415810000000     0.091080000000     0.042460000000    -0.0931652  
C566     C      0.282410000000     0.077290000000     0.998650000000    -0.0128421  
C567     C      0.240850000000     0.108430000000     0.002160000000    -0.102153   
C568     C      0.310670000000     0.100860000000     0.023000000000    -0.0327837  
C569     C      0.204440000000     0.105590000000     0.002540000000     0.0786873  
C570     C      0.172760000000     0.040440000000     0.983140000000     0.15016    
C571     C      0.346840000000     0.102740000000     0.026950000000    -0.0371216  
C572     C      0.394970000000     0.082590000000     0.011650000000     0.0472764  
C573     C      0.243760000000     0.075890000000     0.994620000000     0.0627496  
C574     C      0.137640000000     0.003930000000     0.969160000000    -0.220077   
C575     C      0.127840000000     0.936380000000     0.114430000000    -0.132128   
C576     C      0.088810000000     0.719400000000     0.020330000000     0.0728618  
C577     C      0.072110000000     0.705380000000     0.076390000000     0.0775683  
C578     C      0.098200000000     0.758400000000     0.024020000000    -0.0951105  
C579     C      0.104630000000     0.837140000000     0.038030000000    -0.0379867  
C580     C      0.116150000000     0.875760000000     0.045390000000    -0.0325634  
C581     C      0.110390000000     0.813190000000     0.061650000000    -0.00675469 
C582     C      0.080330000000     0.743440000000     0.080740000000    -0.0970925  
C583     C      0.133640000000     0.891320000000     0.076550000000    -0.0144727  
C584     C      0.155930000000     0.961060000000     0.061610000000    -0.10601    
C585     C      0.140510000000     0.867850000000     0.099830000000    -0.0334748  
C586     C      0.150220000000     0.992560000000     0.064640000000     0.0831551  
C587     C      0.123120000000     0.969150000000     0.117000000000     0.15685    
C588     C      0.129330000000     0.829330000000     0.092350000000    -0.0373558  
C589     C      0.095800000000     0.771190000000     0.055080000000     0.0498461  
C590     C      0.141160000000     0.930660000000     0.085140000000     0.0663493  
C591     C      0.105690000000     0.973010000000     0.147520000000    -0.223797   
C592     C      0.015470000000     0.372710000000     0.052450000000    -0.13265    
C593     C      0.110580000000     0.218860000000     0.001990000000     0.0720876  
C594     C      0.041570000000     0.179860000000     0.996780000000     0.0694907  
C595     C      0.107930000000     0.252260000000     0.006710000000    -0.0928773  
C596     C      0.088360000000     0.303050000000     0.046610000000    -0.0379222  
C597     C      0.082630000000     0.332190000000     0.058600000000    -0.0336003  
C598     C      0.067020000000     0.281990000000     0.018390000000    -0.00649566 
C599     C      0.037870000000     0.212630000000     0.000750000000    -0.0934274  
C600     C      0.055680000000     0.341360000000     0.042470000000    -0.0147978  
C601     C      0.084460000000     0.408470000000     0.065620000000    -0.105615   
C602     C      0.034300000000     0.320210000000     0.014210000000    -0.0333809  
C603     C      0.081530000000     0.440890000000     0.072670000000     0.0725594  
C604     C      0.013100000000     0.405860000000     0.060130000000     0.153871   
C605     C      0.039790000000     0.290760000000     0.002390000000    -0.0387212  
C606     C      0.071140000000     0.248990000000     0.007490000000     0.0472931  
C607     C      0.051620000000     0.374340000000     0.053920000000     0.0636382  
C608     C      0.972870000000     0.401030000000     0.060520000000    -0.221872   
Co1      Co     0.043420000000     0.099320000000     0.060480000000     0.89283    
Co2      Co     0.054240000000     0.009610000000     0.024730000000     1.13532    
Co3      Co     0.094440000000     0.102290000000     0.027730000000     1.13442    
Co4      Co     0.055410000000     0.031650000000     0.100050000000     1.09616    
Co5      Co     0.048340000000     0.004550000000     0.531790000000     1.11041    
Co6      Co     0.973160000000     0.017060000000     0.578750000000     1.06225    
Co7      Co     0.956310000000     0.962000000000     0.518640000000     1.10798    
Co8      Co     0.041090000000     0.067010000000     0.571960000000     0.916188   
Co9      Co     0.094430000000     0.535750000000     0.027010000000     1.07523    
Co10     Co     0.081930000000     0.600390000000     0.090910000000     1.06746    
Co11     Co     0.017980000000     0.529320000000     0.047520000000     1.06589    
Co12     Co     0.113040000000     0.624220000000     0.016890000000     1.10038    
Co13     Co     0.980850000000     0.470070000000     0.506000000000     1.08766    
Co14     Co     0.002100000000     0.563480000000     0.553570000000     1.08433    
Co15     Co     0.970100000000     0.477340000000     0.581930000000     1.08778    
Co16     Co     0.063580000000     0.543460000000     0.528520000000     1.06515    
Co17     Co     0.560170000000     0.086700000000     0.068680000000     0.890061   
Co18     Co     0.628270000000     0.076020000000     0.992660000000     1.1663     
Co19     Co     0.572810000000     0.114220000000     0.990560000000     1.1003     
Co20     Co     0.580790000000     0.040620000000     0.056310000000     1.05665    
Co21     Co     0.436550000000     0.003320000000     0.536780000000     1.12374    
Co22     Co     0.525270000000     0.014890000000     0.493390000000     0.898764   
Co23     Co     0.499360000000     0.076520000000     0.495460000000     1.16942    
Co24     Co     0.512460000000     0.996270000000     0.540130000000     0.886168   
Co25     Co     0.556160000000     0.515050000000     0.015730000000     1.06987    
Co26     Co     0.556660000000     0.607210000000     0.051330000000     1.08778    
Co27     Co     0.553520000000     0.533970000000     0.090980000000     1.0438     
Co28     Co     0.626680000000     0.603620000000     0.023900000000     1.10229    
Co29     Co     0.497220000000     0.478660000000     0.520500000000     0.817205   
Co30     Co     0.473030000000     0.564490000000     0.559630000000     1.11842    
Co31     Co     0.453930000000     0.479150000000     0.562270000000     1.09829    
Co32     Co     0.538480000000     0.557770000000     0.528750000000     1.15625    
H1       H      0.511990000000     0.487160000000     0.655490000000     0.0217171  
H2       H      0.631650000000     0.594100000000     0.920280000000     0.0213616  
H3       H      0.490750000000     0.569560000000     0.763800000000     0.0358839  
H4       H      0.595220000000     0.547370000000     0.814190000000     0.0348436  
H5       H      0.622450000000     0.592970000000     0.860390000000     0.0530433  
H6       H      0.579990000000     0.539230000000     0.754660000000     0.0352025  
H7       H      0.498940000000     0.542360000000     0.869530000000     0.0598975  
H8       H      0.533570000000     0.498780000000     0.713530000000     0.0502076  
H9       H      0.509090000000     0.593540000000     0.711350000000     0.0508112  
H10      H      0.507890000000     0.580450000000     0.822090000000     0.0342187  
H11      H      0.486110000000     0.579790000000     0.654490000000     0.0201551  
H12      H      0.507130000000     0.568010000000     0.954390000000     0.101067   
H13      H      0.475170000000     0.547210000000     0.918600000000     0.0696744  
H14      H      0.486520000000     0.516660000000     0.945450000000     0.0892044  
H15      H      0.484020000000     0.475930000000     0.415090000000     0.0256849  
H16      H      0.519450000000     0.604460000000     0.148340000000     0.0220966  
H17      H      0.590250000000     0.609470000000     0.335130000000     0.0380396  
H18      H      0.486490000000     0.537830000000     0.248500000000     0.0343732  
H19      H      0.505250000000     0.595460000000     0.206500000000     0.0532947  
H20      H      0.472030000000     0.521180000000     0.306940000000     0.0371239  
H21      H      0.610610000000     0.592280000000     0.229940000000     0.0602408  
H22      H      0.491340000000     0.490820000000     0.355890000000     0.0519437  
H23      H      0.550020000000     0.614220000000     0.376690000000     0.0536225  
H24      H      0.604490000000     0.626200000000     0.277050000000     0.0353284  
H25      H      0.542350000000     0.598580000000     0.435050000000     0.0321743  
H26      H      0.649820000000     0.627840000000     0.148620000000     0.0932527  
H27      H      0.659210000000     0.616220000000     0.190450000000     0.0721679  
H28      H      0.633250000000     0.577620000000     0.161310000000     0.0902117  
H29      H      0.459210000000     0.628780000000     0.485810000000     0.0269461  
H30      H      0.580510000000     0.961340000000     0.451240000000     0.0314225  
H31      H      0.486910000000     0.736740000000     0.420340000000     0.0363488  
H32      H      0.587940000000     0.851440000000     0.483470000000     0.0372095  
H33      H      0.587130000000     0.906190000000     0.437860000000     0.0551958  
H34      H      0.588650000000     0.790070000000     0.487630000000     0.0367149  
H35      H      0.472960000000     0.827010000000     0.472540000000     0.0615554  
H36      H      0.468670000000     0.689890000000     0.463140000000     0.0514716  
H37      H      0.593380000000     0.736510000000     0.467860000000     0.0516229  
H38      H      0.485230000000     0.797690000000     0.417860000000     0.0351847  
H39      H      0.582640000000     0.674210000000     0.491890000000     0.0302908  
H40      H      0.430690000000     0.849070000000     0.484060000000     0.0718464  
H41      H      0.457820000000     0.883060000000     0.516360000000     0.0960498  
H42      H      0.444480000000     0.899630000000     0.478010000000     0.0935262  
H43      H      0.530550000000     0.153980000000     0.571150000000     0.0279135  
H44      H      0.402750000000     0.360550000000     0.595360000000     0.0282288  
H45      H      0.510530000000     0.251820000000     0.561730000000     0.0362531  
H46      H      0.416490000000     0.252290000000     0.635890000000     0.0348487  
H47      H      0.401120000000     0.298650000000     0.603480000000     0.0533747  
H48      H      0.416990000000     0.191160000000     0.628990000000     0.0360688  
H49      H      0.526610000000     0.360300000000     0.611570000000     0.0602598  
H50      H      0.528500000000     0.209460000000     0.590670000000     0.0516829  
H51      H      0.402630000000     0.140340000000     0.588840000000     0.0504476  
H52      H      0.510350000000     0.311970000000     0.568920000000     0.035597   
H53      H      0.405980000000     0.084230000000     0.570650000000     0.0209194  
H54      H      0.535790000000     0.457190000000     0.616930000000     0.093108   
H55      H      0.559540000000     0.428780000000     0.624080000000     0.0710878  
H56      H      0.552230000000     0.442640000000     0.582740000000     0.0864827  
H57      H      0.563080000000     0.054050000000     0.625840000000     0.0309715  
H58      H      0.511250000000     0.058380000000     0.908230000000     0.0251507  
H59      H      0.578010000000     0.107010000000     0.727070000000     0.0370893  
H60      H      0.484580000000     0.006030000000     0.803530000000     0.0349321  
H61      H      0.493560000000     0.050920000000     0.849950000000     0.054176   
H62      H      0.470030000000     0.998830000000     0.743980000000     0.0364626  
H63      H      0.608620000000     0.076080000000     0.829790000000     0.0598053  
H64      H      0.575660000000     0.065980000000     0.684430000000     0.0528301  
H65      H      0.453530000000     0.025490000000     0.694660000000     0.051203   
H66      H      0.592740000000     0.113670000000     0.786490000000     0.0351548  
H67      H      0.441690000000     0.012860000000     0.635870000000     0.0203384  
H68      H      0.639950000000     0.065340000000     0.908200000000     0.0743885  
H69      H      0.656860000000     0.090860000000     0.869720000000     0.0665388  
H70      H      0.654640000000     0.116710000000     0.903740000000     0.0812394  
H71      H      0.546150000000     0.965940000000     0.144870000000     0.0282424  
H72      H      0.509880000000     0.081260000000     0.394070000000     0.0213412  
H73      H      0.485350000000     0.964520000000     0.235590000000     0.0374467  
H74      H      0.573820000000     0.055960000000     0.322550000000     0.0380956  
H75      H      0.524380000000     0.076230000000     0.338210000000     0.0553855  
H76      H      0.599890000000     0.055470000000     0.269990000000     0.0360741  
H77      H      0.467660000000     0.950890000000     0.350000000000     0.0624927  
H78      H      0.531320000000     0.954160000000     0.203360000000     0.0515515  
H79      H      0.589230000000     0.079300000000     0.216640000000     0.0501531  
H80      H      0.459460000000     0.964440000000     0.288760000000     0.0348238  
H81      H      0.603480000000     0.089760000000     0.159210000000     0.0225468  
H82      H      0.424740000000     0.949260000000     0.428430000000     0.0934047  
H83      H      0.422090000000     0.921390000000     0.393540000000     0.0723076  
H84      H      0.461020000000     0.935110000000     0.424260000000     0.0906926  
H85      H      0.650010000000     0.711280000000     0.980120000000     0.0222552  
H86      H      0.589970000000     0.944410000000     0.049410000000     0.0304999  
H87      H      0.638500000000     0.810820000000     0.007520000000     0.036507   
H88      H      0.539320000000     0.830720000000     0.942770000000     0.0347542  
H89      H      0.589970000000     0.885330000000     0.038600000000     0.0551424  
H90      H      0.541340000000     0.770600000000     0.935690000000     0.0358101  
H91      H      0.578230000000     0.903800000000     0.934310000000     0.0597548  
H92      H      0.651770000000     0.773140000000     0.969950000000     0.0516031  
H93      H      0.525910000000     0.711800000000     0.969580000000     0.050328   
H94      H      0.636990000000     0.870840000000     0.013940000000     0.0352443  
H95      H      0.525200000000     0.650420000000     0.979150000000     0.0160789  
H96      H      0.600720000000     0.996090000000     0.931210000000     0.0818827  
H97      H      0.563290000000     0.950700000000     0.913920000000     0.070921   
H98      H      0.550530000000     0.975830000000     0.941810000000     0.0937717  
H99      H      0.624970000000     0.487200000000     0.130430000000     0.0184622  
H100     H      0.616410000000     0.223460000000     0.012950000000     0.0199801  
H101     H      0.608600000000     0.356350000000     0.136860000000     0.0372272  
H102     H      0.688630000000     0.351290000000     0.050520000000     0.0347688  
H103     H      0.634450000000     0.288520000000     0.028100000000     0.0534314  
H104     H      0.685850000000     0.410960000000     0.056640000000     0.037583   
H105     H      0.649780000000     0.261320000000     0.129690000000     0.0593172  
H106     H      0.651310000000     0.442730000000     0.141100000000     0.0503736  
H107     H      0.612210000000     0.398820000000     0.042490000000     0.05368    
H108     H      0.611180000000     0.296380000000     0.130780000000     0.0355179  
H109     H      0.585750000000     0.441020000000     0.033160000000     0.0217294  
H110     H      0.651700000000     0.175450000000     0.115880000000     0.093628   
H111     H      0.645410000000     0.202870000000     0.146320000000     0.0698244  
H112     H      0.603200000000     0.162990000000     0.126560000000     0.0843338  
H113     H      0.637880000000     0.109170000000     0.458710000000     0.0232278  
H114     H      0.881300000000     0.431950000000     0.467440000000     0.0168456  
H115     H      0.671820000000     0.258440000000     0.505320000000     0.0375146  
H116     H      0.792620000000     0.303500000000     0.445640000000     0.0348903  
H117     H      0.820500000000     0.377150000000     0.447060000000     0.0532295  
H118     H      0.734150000000     0.241120000000     0.430510000000     0.0357508  
H119     H      0.789730000000     0.336810000000     0.546880000000     0.0616015  
H120     H      0.694920000000     0.175010000000     0.452420000000     0.0517873  
H121     H      0.621680000000     0.224310000000     0.466550000000     0.0521545  
H122     H      0.728640000000     0.320780000000     0.518600000000     0.0344936  
H123     H      0.567690000000     0.159270000000     0.476240000000    -0.000110809
H124     H      0.863760000000     0.427370000000     0.584050000000     0.0862209  
H125     H      0.822260000000     0.379530000000     0.590710000000     0.0704727  
H126     H      0.869620000000     0.384890000000     0.588630000000     0.0828751  
H127     H      0.149510000000     0.591790000000     0.590620000000     0.0223788  
H128     H      0.375100000000     0.888940000000     0.511850000000     0.0228802  
H129     H      0.264700000000     0.703190000000     0.626270000000     0.035911   
H130     H      0.268790000000     0.816530000000     0.564600000000     0.0346836  
H131     H      0.318560000000     0.828970000000     0.527500000000     0.0530374  
H132     H      0.206460000000     0.759140000000     0.574560000000     0.0353398  
H133     H      0.374030000000     0.831420000000     0.622670000000     0.0596864  
H134     H      0.213210000000     0.649360000000     0.599210000000     0.0510247  
H135     H      0.158010000000     0.718230000000     0.609040000000     0.050163   
H136     H      0.327970000000     0.760540000000     0.613950000000     0.0345169  
H137     H      0.094990000000     0.660430000000     0.597910000000     0.0199103  
H138     H      0.447990000000     0.926540000000     0.620470000000     0.0934519  
H139     H      0.437900000000     0.879130000000     0.636100000000     0.0733628  
H140     H      0.469270000000     0.901500000000     0.602120000000     0.0975077  
H141     H      0.661540000000     0.604170000000     0.533610000000     0.0299295  
H142     H      0.881290000000     0.496730000000     0.614620000000     0.0182942  
H143     H      0.699280000000     0.482520000000     0.519120000000     0.0369993  
H144     H      0.805700000000     0.563120000000     0.601090000000     0.0354118  
H145     H      0.820970000000     0.498410000000     0.616500000000     0.0535631  
H146     H      0.748780000000     0.572190000000     0.593200000000     0.0353344  
H147     H      0.828370000000     0.532130000000     0.513960000000     0.0627006  
H148     H      0.718790000000     0.597270000000     0.546750000000     0.0512561  
H149     H      0.643590000000     0.471540000000     0.549930000000     0.0498173  
H150     H      0.755460000000     0.473450000000     0.527290000000     0.0356814  
H151     H      0.588160000000     0.479180000000     0.536000000000     0.019974   
H152     H      0.899680000000     0.508080000000     0.496240000000     0.109629   
H153     H      0.871380000000     0.529490000000     0.480850000000     0.0739051  
H154     H      0.918510000000     0.560030000000     0.500320000000     0.0955967  
H155     H      0.091660000000     0.462390000000     0.574050000000     0.0316042  
H156     H      0.366470000000     0.512790000000     0.507640000000     0.0309969  
H157     H      0.144510000000     0.370630000000     0.554430000000     0.0366569  
H158     H      0.246800000000     0.484580000000     0.494060000000     0.0347322  
H159     H      0.299340000000     0.481390000000     0.490510000000     0.054417   
H160     H      0.180070000000     0.468470000000     0.486160000000     0.0386423  
H161     H      0.269080000000     0.422480000000     0.585530000000     0.0597194  
H162     H      0.135580000000     0.436830000000     0.573680000000     0.053944   
H163     H      0.099250000000     0.404040000000     0.472130000000     0.0519263  
H164     H      0.211550000000     0.383500000000     0.559970000000     0.0330951  
H165     H      0.053550000000     0.428110000000     0.473870000000     0.021282   
H166     H      0.363960000000     0.475930000000     0.623540000000     0.0896875  
H167     H      0.316060000000     0.433380000000     0.627000000000     0.0729977  
H168     H      0.353790000000     0.429220000000     0.608940000000     0.0982435  
H169     H      0.048930000000     0.512120000000     0.658550000000     0.0317372  
H170     H      0.068630000000     0.615870000000     0.927790000000     0.0257248  
H171     H      0.026610000000     0.504250000000     0.764520000000     0.0366216  
H172     H      0.093870000000     0.633860000000     0.817970000000     0.0347831  
H173     H      0.057960000000     0.614300000000     0.869110000000     0.0541759  
H174     H      0.079910000000     0.630350000000     0.758070000000     0.0366163  
H175     H      0.096610000000     0.531300000000     0.863650000000     0.059987   
H176     H      0.066740000000     0.523810000000     0.716320000000     0.0525804  
H177     H      0.024290000000     0.605020000000     0.714160000000     0.0510344  
H178     H      0.040480000000     0.507720000000     0.823940000000     0.0352756  
H179     H      0.007140000000     0.593010000000     0.655020000000     0.0208546  
H180     H      0.089350000000     0.503080000000     0.946130000000     0.085385   
H181     H      0.113680000000     0.506010000000     0.909530000000     0.0697013  
H182     H      0.139410000000     0.541550000000     0.941120000000     0.0848921  
H183     H      0.966010000000     0.509510000000     0.419760000000     0.0248382  
H184     H      0.093150000000     0.534150000000     0.162830000000     0.0277646  
H185     H      0.987480000000     0.539690000000     0.310180000000     0.0359307  
H186     H      0.058740000000     0.479140000000     0.268050000000     0.0350537  
H187     H      0.086290000000     0.525040000000     0.221260000000     0.0536246  
H188     H      0.060820000000     0.488380000000     0.327380000000     0.0363653  
H189     H      0.962690000000     0.478780000000     0.207040000000     0.0593552  
H190     H      0.964980000000     0.503780000000     0.360800000000     0.0505884  
H191     H      0.087500000000     0.540100000000     0.368290000000     0.0512103  
H192     H      0.985080000000     0.529980000000     0.251020000000     0.0346602  
H193     H      0.087230000000     0.544530000000     0.427980000000     0.0219244  
H194     H      0.958520000000     0.464380000000     0.120330000000     0.0808544  
H195     H      0.931850000000     0.463810000000     0.154610000000     0.0685011  
H196     H      0.957210000000     0.507790000000     0.130070000000     0.0844596  
H197     H      0.011030000000     0.433700000000     0.974110000000     0.0197288  
H198     H      0.666400000000     0.224010000000     0.971130000000     0.0173256  
H199     H      0.894420000000     0.337040000000     0.996550000000     0.0329969  
H200     H      0.782680000000     0.326320000000     0.925890000000     0.0346551  
H201     H      0.726970000000     0.286080000000     0.963300000000     0.05278    
H202     H      0.846900000000     0.386060000000     0.922730000000     0.0359187  
H203     H      0.789760000000     0.224050000000     0.963580000000     0.0597634  
H204     H      0.949310000000     0.374390000000     0.961290000000     0.0494056  
H205     H      0.891300000000     0.441950000000     0.956410000000     0.0501239  
H206     H      0.830910000000     0.278020000000     0.999680000000     0.0348904  
H207     H      0.953340000000     0.500460000000     0.968500000000     0.0212162  
H208     H      0.703760000000     0.128690000000     0.954040000000     0.0664368  
H209     H      0.756150000000     0.156780000000     0.955590000000     0.0655072  
H210     H      0.731160000000     0.140320000000     0.993340000000     0.0823806  
H211     H      0.495830000000     0.938230000000     0.037790000000     0.0321153  
H212     H      0.211410000000     0.688700000000     0.034060000000     0.0195606  
H213     H      0.356160000000     0.869090000000     0.126930000000     0.0358341  
H214     H      0.339890000000     0.758630000000     0.061890000000     0.0358261  
H215     H      0.275220000000     0.742590000000     0.042070000000     0.0558969  
H216     H      0.392870000000     0.822760000000     0.050990000000     0.0359706  
H217     H      0.266230000000     0.727320000000     0.147490000000     0.059371   
H218     H      0.447750000000     0.875020000000     0.055480000000     0.0523854  
H219     H      0.387140000000     0.925730000000     0.099140000000     0.0509547  
H220     H      0.299070000000     0.804010000000     0.134240000000     0.0354774  
H221     H      0.440540000000     0.990480000000     0.084680000000     0.0229167  
H222     H      0.183780000000     0.633080000000     0.146830000000     0.0888053  
H223     H      0.209450000000     0.676840000000     0.170980000000     0.070651   
H224     H      0.165470000000     0.666380000000     0.147040000000     0.0770924  
H225     H      0.656580000000     0.504610000000     0.981220000000     0.0180781  
H226     H      0.961540000000     0.574100000000     0.117590000000     0.0158322  
H227     H      0.788830000000     0.574040000000     0.005170000000     0.0379593  
H228     H      0.829890000000     0.507240000000     0.091720000000     0.0333921  
H229     H      0.893400000000     0.558420000000     0.113240000000     0.0513703  
H230     H      0.760110000000     0.484820000000     0.081200000000     0.0371086  
H231     H      0.903210000000     0.582670000000     0.008510000000     0.0611307  
H232     H      0.714720000000     0.497420000000     0.988800000000     0.0507339  
H233     H      0.734120000000     0.541840000000     0.087310000000     0.0537524  
H234     H      0.857770000000     0.598600000000     0.017120000000     0.0340358  
H235     H      0.679020000000     0.551290000000     0.078280000000     0.0341294  
H236     H      0.978760000000     0.586570000000     0.991640000000     0.102022   
H237     H      0.965810000000     0.623900000000     0.988630000000     0.0746422  
H238     H      0.008820000000     0.632500000000     0.012570000000     0.101986   
H239     H      0.226160000000     0.629060000000     0.992890000000     0.0175797  
H240     H      0.450250000000     0.540590000000     0.121590000000     0.0165081  
H241     H      0.276170000000     0.549660000000     0.018900000000     0.0367639  
H242     H      0.381750000000     0.604520000000     0.107040000000     0.0349286  
H243     H      0.393460000000     0.549090000000     0.122810000000     0.0526023  
H244     H      0.336550000000     0.629820000000     0.098760000000     0.0373583  
H245     H      0.383410000000     0.547020000000     0.016540000000     0.0608012  
H246     H      0.286490000000     0.626300000000     0.002550000000     0.0505739  
H247     H      0.254550000000     0.586070000000     0.102540000000     0.053392   
H248     H      0.319010000000     0.522570000000     0.028320000000     0.0336003  
H249     H      0.194570000000     0.587250000000     0.091620000000     0.0323092  
H250     H      0.455040000000     0.516770000000     0.007430000000     0.106186   
H251     H      0.413230000000     0.517650000000     0.989210000000     0.0708706  
H252     H      0.458670000000     0.562640000000     0.994290000000     0.0893748  
H253     H      0.895060000000     0.859670000000     0.571920000000     0.0246237  
H254     H      0.562900000000     0.664740000000     0.599280000000     0.0211927  
H255     H      0.792700000000     0.769440000000     0.641830000000     0.0370175  
H256     H      0.677270000000     0.765650000000     0.583550000000     0.0356363  
H257     H      0.623720000000     0.723180000000     0.611730000000     0.0536624  
H258     H      0.740470000000     0.825210000000     0.581560000000     0.0373719  
H259     H      0.681640000000     0.655750000000     0.619750000000     0.0603477  
H260     H      0.834220000000     0.802890000000     0.588050000000     0.0523148  
H261     H      0.796740000000     0.879520000000     0.621970000000     0.0519811  
H262     H      0.728810000000     0.710100000000     0.646050000000     0.0335511  
H263     H      0.858750000000     0.936200000000     0.606360000000     0.0268894  
H264     H      0.619060000000     0.572790000000     0.593370000000     0.0946123  
H265     H      0.641840000000     0.587760000000     0.633660000000     0.0727241  
H266     H      0.589380000000     0.563220000000     0.628170000000     0.0917494  
H267     H      0.344650000000     0.424120000000     0.513700000000     0.030944   
H268     H      0.120320000000     0.092030000000     0.473940000000     0.0213268  
H269     H      0.238460000000     0.324880000000     0.454590000000     0.0373202  
H270     H      0.231260000000     0.200240000000     0.492250000000     0.0323442  
H271     H      0.178520000000     0.151540000000     0.459000000000     0.0537518  
H272     H      0.293990000000     0.260820000000     0.494060000000     0.0364621  
H273     H      0.128450000000     0.218920000000     0.488370000000     0.0596932  
H274     H      0.283060000000     0.366350000000     0.499130000000     0.053222   
H275     H      0.345540000000     0.314530000000     0.461900000000     0.0518129  
H276     H      0.175460000000     0.263950000000     0.452150000000     0.0345593  
H277     H      0.407030000000     0.373280000000     0.477000000000     0.0245485  
H278     H      0.057380000000     0.159920000000     0.529050000000     0.0876233  
H279     H      0.059450000000     0.186580000000     0.491470000000     0.0718508  
H280     H      0.029910000000     0.133920000000     0.492220000000     0.0947495  
H281     H      0.638460000000     0.073450000000     0.526100000000     0.0340522  
H282     H      0.925200000000     0.076710000000     0.546880000000     0.0273575  
H283     H      0.713670000000     0.026630000000     0.492850000000     0.0393377  
H284     H      0.802510000000     0.029560000000     0.586030000000     0.0329142  
H285     H      0.867550000000     0.080880000000     0.553610000000     0.0547596  
H286     H      0.741510000000     0.027490000000     0.597600000000     0.0369035  
H287     H      0.799720000000     0.978840000000     0.494330000000     0.0615133  
H288     H      0.701860000000     0.079420000000     0.523750000000     0.0532781  
H289     H      0.662070000000     0.973560000000     0.582790000000     0.0519576  
H290     H      0.773940000000     0.027750000000     0.481320000000     0.0349358  
H291     H      0.597810000000     0.967620000000     0.584080000000     0.0287696  
H292     H      0.853210000000     0.940730000000     0.493990000000     0.0822523  
H293     H      0.832180000000     0.957580000000     0.461480000000     0.0699242  
H294     H      0.884340000000     0.978650000000     0.465260000000     0.0844117  
H295     H      0.340880000000     0.973160000000     0.481470000000     0.0199308  
H296     H      0.113470000000     0.991870000000     0.565580000000     0.0120089  
H297     H      0.325560000000     0.102870000000     0.508390000000     0.0370648  
H298     H      0.186830000000     0.006010000000     0.480440000000     0.0341814  
H299     H      0.165180000000     0.993780000000     0.536830000000     0.0522685  
H300     H      0.238140000000     0.000550000000     0.455570000000     0.0359491  
H301     H      0.220330000000     0.119270000000     0.527380000000     0.0594428  
H302     H      0.284470000000     0.981320000000     0.481330000000     0.0513423  
H303     H      0.357660000000     0.104240000000     0.457340000000     0.0520871  
H304     H      0.274530000000     0.108000000000     0.533520000000     0.0339183  
H305     H      0.413550000000     0.095090000000     0.457910000000     0.0196099  
H306     H      0.162260000000     0.126910000000     0.588620000000     0.0828486  
H307     H      0.202140000000     0.153040000000     0.561600000000     0.0705674  
H308     H      0.153150000000     0.136060000000     0.545840000000     0.0906665  
H309     H      0.108620000000     0.667290000000     0.510160000000     0.0243395  
H310     H      0.971400000000     0.873730000000     0.482900000000     0.0206559  
H311     H      0.058760000000     0.738920000000     0.544360000000     0.0368124  
H312     H      0.031010000000     0.810080000000     0.452380000000     0.0342502  
H313     H      0.984640000000     0.822400000000     0.471390000000     0.0530913  
H314     H      0.044090000000     0.757970000000     0.440140000000     0.0368475  
H315     H      0.060300000000     0.851460000000     0.559290000000     0.0596121  
H316     H      0.113580000000     0.731540000000     0.507550000000     0.0513727  
H317     H      0.997690000000     0.679110000000     0.461500000000     0.0515443  
H318     H      0.042750000000     0.788230000000     0.557060000000     0.0334055  
H319     H      0.993020000000     0.615420000000     0.465830000000     0.0225261  
H320     H      0.020040000000     0.905840000000     0.594070000000     0.0961582  
H321     H      0.047660000000     0.881480000000     0.602000000000     0.072091   
H322     H      0.070420000000     0.929220000000     0.583060000000     0.0883764  
H323     H      0.995870000000     0.401660000000     0.622570000000     0.0224739  
H324     H      0.024950000000     0.145880000000     0.600030000000     0.0189212  
H325     H      0.004620000000     0.293990000000     0.640290000000     0.0361562  
H326     H      0.896990000000     0.172990000000     0.588910000000     0.0350506  
H327     H      0.015100000000     0.199290000000     0.607610000000     0.0542015  
H328     H      0.898790000000     0.235270000000     0.578160000000     0.0365552  
H329     H      0.896240000000     0.119540000000     0.631700000000     0.0598835  
H330     H      0.981780000000     0.337560000000     0.643110000000     0.050574   
H331     H      0.938070000000     0.291550000000     0.545320000000     0.0516911  
H332     H      0.001380000000     0.231740000000     0.652230000000     0.034935   
H333     H      0.950830000000     0.355690000000     0.526050000000     0.0216419  
H334     H      0.905700000000     0.037240000000     0.646660000000     0.0945837  
H335     H      0.870660000000     0.052170000000     0.634940000000     0.0713991  
H336     H      0.888230000000     0.034540000000     0.604230000000     0.0949306  
H337     H      0.075770000000     0.105250000000     0.928090000000     0.0294899  
H338     H      0.967040000000     0.960510000000     0.667110000000     0.0294843  
H339     H      0.034330000000     0.088270000000     0.818810000000     0.0365986  
H340     H      0.005190000000     0.957540000000     0.782980000000     0.0353434  
H341     H      0.966690000000     0.961170000000     0.726740000000     0.0557667  
H342     H      0.003560000000     0.968130000000     0.841500000000     0.0355807  
H343     H      0.084260000000     0.058520000000     0.729780000000     0.0615165  
H344     H      0.068360000000     0.096660000000     0.869080000000     0.0525917  
H345     H      0.972320000000     0.978610000000     0.883330000000     0.0514664  
H346     H      0.038020000000     0.077870000000     0.760790000000     0.0368313  
H347     H      0.982170000000     0.987660000000     0.942540000000     0.0240432  
H348     H      0.098900000000     0.089350000000     0.656350000000     0.0851297  
H349     H      0.122630000000     0.069830000000     0.683440000000     0.0706153  
H350     H      0.100690000000     0.046750000000     0.644570000000     0.0909407  
H351     H      0.961850000000     0.013490000000     0.427280000000     0.0216314  
H352     H      0.109790000000     0.085370000000     0.171260000000     0.0223276  
H353     H      0.019740000000     0.092200000000     0.336360000000     0.0367659  
H354     H      0.060140000000     0.022160000000     0.264850000000     0.0325629  
H355     H      0.103710000000     0.074630000000     0.229720000000     0.0527052  
H356     H      0.050660000000     0.003810000000     0.323090000000     0.0358639  
H357     H      0.003020000000     0.088470000000     0.223420000000     0.059222   
H358     H      0.973510000000     0.034770000000     0.370030000000     0.0510287  
H359     H      0.080110000000     0.030630000000     0.378570000000     0.0516111  
H360     H      0.029920000000     0.111210000000     0.277990000000     0.0345614  
H361     H      0.067530000000     0.009140000000     0.435900000000     0.0197068  
H362     H      0.982010000000     0.081510000000     0.143250000000     0.0881119  
H363     H      0.986550000000     0.112780000000     0.175810000000     0.0702567  
H364     H      0.019910000000     0.132560000000     0.142970000000     0.087502   
H365     H      0.636450000000     0.718110000000     0.084820000000     0.0223784  
H366     H      0.936600000000     0.931970000000     0.032210000000     0.0253616  
H367     H      0.794760000000     0.776400000000     0.153180000000     0.0354147  
H368     H      0.815470000000     0.883040000000     0.072620000000     0.035651   
H369     H      0.870280000000     0.890160000000     0.047020000000     0.054626   
H370     H      0.750420000000     0.826190000000     0.077110000000     0.0362583  
H371     H      0.908200000000     0.896140000000     0.149350000000     0.0590528  
H372     H      0.691550000000     0.779860000000     0.104120000000     0.0513672  
H373     H      0.761700000000     0.724600000000     0.115470000000     0.0513364  
H374     H      0.860120000000     0.831270000000     0.146690000000     0.0337467  
H375     H      0.706410000000     0.663920000000     0.097060000000     0.0252919  
H376     H      0.000850000000     0.970230000000     0.145530000000     0.06671    
H377     H      0.972120000000     0.924390000000     0.166590000000     0.0652318  
H378     H      0.005110000000     0.928060000000     0.136840000000     0.0777429  
H379     H      0.124870000000     0.218560000000     0.084450000000     0.0229772  
H380     H      0.433760000000     0.447280000000     0.007060000000     0.014428   
H381     H      0.291150000000     0.282970000000     0.123490000000     0.0368514  
H382     H      0.300960000000     0.380360000000     0.036720000000     0.0343957  
H383     H      0.365410000000     0.399660000000     0.014770000000     0.0527154  
H384     H      0.237390000000     0.321350000000     0.045960000000     0.0364667  
H385     H      0.387820000000     0.406040000000     0.119830000000     0.0610292  
H386     H      0.184110000000     0.282850000000     0.086870000000     0.0508292  
H387     H      0.252800000000     0.226010000000     0.090230000000     0.0540444  
H388     H      0.354010000000     0.339170000000     0.112810000000     0.0348734  
H389     H      0.193700000000     0.163070000000     0.088120000000     0.0323058  
H390     H      0.480860000000     0.481250000000     0.125800000000     0.0787553  
H391     H      0.447340000000     0.435940000000     0.144600000000     0.0672275  
H392     H      0.484350000000     0.437960000000     0.120750000000     0.0825725  
H393     H      0.944190000000     0.002410000000     0.133200000000     0.018509   
H394     H      0.720230000000     0.079480000000     0.025310000000     0.0141552  
H395     H      0.860040000000     0.050220000000     0.139930000000     0.0355589  
H396     H      0.744640000000     0.983660000000     0.062190000000     0.0363615  
H397     H      0.765840000000     0.058900000000     0.042190000000     0.0543587  
H398     H      0.795560000000     0.966350000000     0.063160000000     0.0361106  
H399     H      0.726090000000     0.037510000000     0.140860000000     0.0614034  
H400     H      0.880630000000     0.993700000000     0.145020000000     0.050969   
H401     H      0.863620000000     0.017380000000     0.042230000000     0.0518187  
H402     H      0.808690000000     0.067610000000     0.138930000000     0.034894   
H403     H      0.927020000000     0.027080000000     0.031610000000     0.028011   
H404     H      0.643190000000     0.033340000000     0.129070000000     0.0966307  
H405     H      0.684720000000     0.059570000000     0.156810000000     0.074348   
H406     H      0.669840000000     0.086540000000     0.128590000000     0.0978284  
H407     H      0.467720000000     0.101340000000     0.069990000000     0.0221982  
H408     H      0.204400000000     0.131430000000     0.010290000000     0.0326719  
H409     H      0.367780000000     0.122270000000     0.045360000000     0.0366309  
H410     H      0.271070000000     0.036730000000     0.959540000000     0.033919   
H411     H      0.266580000000     0.136110000000     0.008620000000     0.0545648  
H412     H      0.332640000000     0.037930000000     0.967850000000     0.0362993  
H413     H      0.210290000000     0.016630000000     0.976960000000     0.0578564  
H414     H      0.403710000000     0.094780000000     0.064190000000     0.0510947  
H415     H      0.398200000000     0.071000000000     0.960510000000     0.0506319  
H416     H      0.304930000000     0.117860000000     0.039480000000     0.0361508  
H417     H      0.460990000000     0.075150000000     0.967960000000     0.024402   
H418     H      0.118840000000     0.011800000000     0.953050000000     0.0843753  
H419     H      0.146270000000     0.986960000000     0.954260000000     0.0690651  
H420     H      0.120340000000     0.984430000000     0.989650000000     0.0800086  
H421     H      0.061940000000     0.685300000000     0.097480000000     0.0189426  
H422     H      0.158060000000     0.013580000000     0.044440000000     0.0167505  
H423     H      0.135230000000     0.812040000000     0.110850000000     0.0366611  
H424     H      0.109810000000     0.892940000000     0.027090000000     0.0342478  
H425     H      0.168230000000     0.958680000000     0.039380000000     0.0536291  
H426     H      0.089920000000     0.825660000000     0.014310000000     0.0353694  
H427     H      0.117680000000     0.913830000000     0.133680000000     0.059919   
H428     H      0.075870000000     0.751340000000     0.104590000000     0.0514842  
H429     H      0.109370000000     0.778740000000     0.003270000000     0.050339   
H430     H      0.154170000000     0.879140000000     0.123880000000     0.0345959  
H431     H      0.093390000000     0.710950000000     0.996750000000     0.0156852  
H432     H      0.074800000000     0.964570000000     0.141800000000     0.075715   
H433     H      0.106730000000     0.954050000000     0.168260000000     0.0695091  
H434     H      0.121680000000     0.003970000000     0.155530000000     0.0840279  
H435     H      0.014910000000     0.151780000000     0.993550000000     0.0245636  
H436     H      0.108480000000     0.467010000000     0.080300000000     0.0232404  
H437     H      0.022920000000     0.275020000000     0.980570000000     0.0361496  
H438     H      0.099140000000     0.347270000000     0.080750000000     0.0348427  
H439     H      0.113010000000     0.411160000000     0.067690000000     0.0528265  
H440     H      0.108840000000     0.296310000000     0.059980000000     0.0361407  
H441     H      0.989170000000     0.345750000000     0.045300000000     0.0588564  
H442     H      0.008900000000     0.208830000000     0.000850000000     0.0507077  
H443     H      0.134420000000     0.280100000000     0.011140000000     0.0504425  
H444     H      0.013830000000     0.326900000000     0.000790000000     0.0336476  
H445     H      0.139410000000     0.222110000000     0.003500000000     0.0305603  
H446     H      0.966450000000     0.412880000000     0.037130000000     0.0859968  
H447     H      0.949730000000     0.369700000000     0.062790000000     0.0695451  
H448     H      0.971190000000     0.417010000000     0.081510000000     0.0816963  
N1       N      0.570980000000     0.569000000000     0.929700000000    -0.218127   
N2       N      0.496820000000     0.532090000000     0.650800000000    -0.204583   
N3       N      0.572280000000     0.602070000000     0.155110000000    -0.219939   
N4       N      0.513330000000     0.536070000000     0.429500000000    -0.206284   
N5       N      0.523610000000     0.926700000000     0.471180000000    -0.200226   
N6       N      0.520310000000     0.647450000000     0.491600000000    -0.201978   
N7       N      0.465340000000     0.395910000000     0.596110000000    -0.203006   
N8       N      0.468330000000     0.115620000000     0.568170000000    -0.208249   
N9       N      0.570650000000     0.072410000000     0.903540000000    -0.227162   
N10      N      0.501380000000     0.032060000000     0.626600000000    -0.203191   
N11      N      0.482930000000     0.019500000000     0.405330000000    -0.218343   
N12      N      0.574630000000     0.028540000000     0.147740000000    -0.193758   
N13      N      0.585170000000     0.959980000000     0.998320000000    -0.220318   
N14      N      0.587610000000     0.676690000000     0.981940000000    -0.208838   
N15      N      0.620950000000     0.202860000000     0.062300000000    -0.215936   
N16      N      0.602980000000     0.467150000000     0.081300000000    -0.203675   
N17      N      0.871730000000     0.415700000000     0.518940000000    -0.223355   
N18      N      0.599980000000     0.130270000000     0.469730000000    -0.210341   
N19      N      0.407650000000     0.896740000000     0.558190000000    -0.219002   
N20      N      0.117890000000     0.622440000000     0.591840000000    -0.206125   
N21      N      0.890250000000     0.514200000000     0.563450000000    -0.223414   
N22      N      0.620670000000     0.542300000000     0.534030000000    -0.188459   
N23      N      0.357920000000     0.484700000000     0.555650000000    -0.217146   
N24      N      0.071060000000     0.448680000000     0.523470000000    -0.207303   
N25      N      0.088690000000     0.574190000000     0.931100000000    -0.219852   
N26      N      0.025360000000     0.550640000000     0.652870000000    -0.206436   
N27      N      0.032580000000     0.514650000000     0.150270000000    -0.219028   
N28      N      0.026490000000     0.526500000000     0.428290000000    -0.206309   
N29      N      0.693350000000     0.188700000000     0.973580000000    -0.223175   
N30      N      0.986250000000     0.470880000000     0.974020000000    -0.205991   
N31      N      0.199230000000     0.676290000000     0.085700000000    -0.221983   
N32      N      0.471970000000     0.969220000000     0.060090000000    -0.203408   
N33      N      0.970720000000     0.586810000000     0.065950000000    -0.221906   
N34      N      0.664800000000     0.529920000000     0.028560000000    -0.207635   
N35      N      0.449930000000     0.540470000000     0.068760000000    -0.220624   
N36      N      0.205640000000     0.606550000000     0.041020000000    -0.207436   
N37      N      0.586510000000     0.626250000000     0.600860000000    -0.220239   
N38      N      0.881030000000     0.902100000000     0.587340000000    -0.205774   
N39      N      0.091400000000     0.120470000000     0.492130000000    -0.216227   
N40      N      0.380350000000     0.402730000000     0.496990000000    -0.206608   
N41      N      0.895690000000     0.023120000000     0.519610000000    -0.221763   
N42      N      0.613030000000     0.019230000000     0.554210000000    -0.184415   
N43      N      0.135250000000     0.053890000000     0.562350000000    -0.226031   
N44      N      0.381570000000     0.034030000000     0.471880000000    -0.211361   
N45      N      0.007680000000     0.892170000000     0.527580000000    -0.223544   
N46      N      0.049840000000     0.636790000000     0.489540000000    -0.206169   
N47      N      0.966230000000     0.100260000000     0.610240000000    -0.209785   
N48      N      0.974170000000     0.383330000000     0.572870000000    -0.206888   
N49      N      0.024860000000     0.010610000000     0.663480000000    -0.218821   
N50      N      0.030590000000     0.046590000000     0.939640000000    -0.210315   
N51      N      0.059430000000     0.092100000000     0.162340000000    -0.220319   
N52      N      0.013690000000     0.009490000000     0.435750000000    -0.209773   
N53      N      0.961880000000     0.937650000000     0.081670000000    -0.224406   
N54      N      0.668020000000     0.687140000000     0.088220000000    -0.20848    
N55      N      0.451160000000     0.451730000000     0.058700000000    -0.222281   
N56      N      0.155300000000     0.186550000000     0.085000000000    -0.20738    
N57      N      0.693360000000     0.067880000000     0.072230000000    -0.223846   
N58      N      0.940840000000     0.017080000000     0.081890000000    -0.199693   
N59      N      0.170200000000     0.071170000000     0.995470000000    -0.219076   
N60      N      0.469240000000     0.088920000000     0.019440000000    -0.205893   
N61      N      0.129910000000     0.993920000000     0.089970000000    -0.222452   
N62      N      0.078610000000     0.694180000000     0.047100000000    -0.210578   
N63      N      0.046980000000     0.440960000000     0.067430000000    -0.218888   
N64      N      0.077490000000     0.182590000000     0.999360000000    -0.187056   
O1       O      0.048910000000     0.117340000000     0.014230000000    -0.445235   
O2       O      0.004680000000     0.977740000000     0.042810000000    -0.460591   
O3       O      0.068660000000     0.080020000000     0.984730000000    -0.430938   
O4       O      0.001530000000     0.026000000000     0.098780000000    -0.413197   
O5       O      0.025750000000     0.018840000000     0.990880000000    -0.469763   
O6       O      0.994740000000     0.054520000000     0.052240000000    -0.415534   
O7       O      0.027820000000     0.977270000000     0.091360000000    -0.477991   
O8       O      0.112810000000     0.150550000000     0.006660000000    -0.40572    
O9       O      0.037060000000     0.093890000000     0.108410000000    -0.409429   
O10      O      0.103330000000     0.035850000000     0.002150000000    -0.456056   
O11      O      0.126850000000     0.124900000000     0.065460000000    -0.437892   
O12      O      0.102870000000     0.031140000000     0.101730000000    -0.439432   
O13      O      0.083890000000     0.996350000000     0.056090000000    -0.456972   
O14      O      0.090160000000     0.148220000000     0.071480000000    -0.448767   
O15      O      0.083500000000     0.082330000000     0.116490000000    -0.451926   
O16      O      0.136060000000     0.096870000000     0.016640000000    -0.437762   
O17      O      0.065000000000     0.056450000000     0.053200000000    -0.581277   
O18      O      0.030560000000     0.991310000000     0.486010000000    -0.451646   
O19      O      0.951660000000     0.035600000000     0.607430000000    -0.415055   
O20      O      0.922050000000     0.983140000000     0.518490000000    -0.456292   
O21      O      0.043390000000     0.089740000000     0.529730000000    -0.422695   
O22      O      0.955940000000     0.038700000000     0.542160000000    -0.431067   
O23      O      0.070700000000     0.058110000000     0.512710000000    -0.434632   
O24      O      0.004010000000     0.081700000000     0.584850000000    -0.460759   
O25      O      0.976550000000     0.992800000000     0.480800000000    -0.472976   
O26      O      0.071210000000     0.016790000000     0.574280000000    -0.458759   
O27      O      0.922740000000     0.968560000000     0.580370000000    -0.407316   
O28      O      0.980000000000     0.930040000000     0.512390000000    -0.444553   
O29      O      0.042770000000     0.048410000000     0.616000000000    -0.445501   
O30      O      0.987590000000     0.994660000000     0.614920000000    -0.436146   
O31      O      0.029640000000     0.953230000000     0.547070000000    -0.465253   
O32      O      0.093810000000     0.076720000000     0.568940000000    -0.418018   
O33      O      0.933410000000     0.928290000000     0.554900000000    -0.463012   
O34      O      0.002130000000     0.005970000000     0.548810000000    -0.556626   
O35      O      0.046490000000     0.497800000000     0.001550000000    -0.434224   
O36      O      0.087740000000     0.647870000000     0.073900000000    -0.464744   
O37      O      0.009360000000     0.570440000000     0.041680000000    -0.461869   
O38      O      0.084090000000     0.597670000000     0.979820000000    -0.461919   
O39      O      0.025220000000     0.587590000000     0.092400000000    -0.412194   
O40      O      0.108260000000     0.559380000000     0.982450000000    -0.441692   
O41      O      0.078460000000     0.644020000000     0.020160000000    -0.439551   
O42      O      0.014710000000     0.528380000000     0.001210000000    -0.440716   
O43      O      0.141460000000     0.567550000000     0.048270000000    -0.460927   
O44      O      0.075270000000     0.555050000000     0.112280000000    -0.448953   
O45      O      0.020580000000     0.480600000000     0.054280000000    -0.434208   
O46      O      0.146450000000     0.656610000000     0.050600000000    -0.473298   
O47      O      0.138240000000     0.621130000000     0.095310000000    -0.426858   
O48      O      0.081600000000     0.507680000000     0.067160000000    -0.439624   
O49      O      0.157740000000     0.614480000000     0.011760000000    -0.42471    
O50      O      0.014290000000     0.523510000000     0.096280000000    -0.434764   
O51      O      0.077060000000     0.572860000000     0.045490000000    -0.526785   
O52      O      0.932530000000     0.466740000000     0.508060000000    -0.455896   
O53      O      0.007790000000     0.575970000000     0.508260000000    -0.439314   
O54      O      0.937070000000     0.501020000000     0.587450000000    -0.437686   
O55      O      0.054480000000     0.531690000000     0.480900000000    -0.430785   
O56      O      0.949690000000     0.536020000000     0.542650000000    -0.468756   
O57      O      0.992410000000     0.509980000000     0.474860000000    -0.449174   
O58      O      0.068900000000     0.594110000000     0.512110000000    -0.426065   
O59      O      0.923750000000     0.440030000000     0.556860000000    -0.455033   
O60      O      0.027130000000     0.465500000000     0.499990000000    -0.437899   
O61      O      0.998000000000     0.557160000000     0.602440000000    -0.429202   
O62      O      0.994980000000     0.447880000000     0.581170000000    -0.445349   
O63      O      0.080780000000     0.560360000000     0.572080000000    -0.439766   
O64      O      0.056540000000     0.598630000000     0.567620000000    -0.443964   
O65      O      0.967160000000     0.423380000000     0.533530000000    -0.442805   
O66      O      0.064730000000     0.498300000000     0.541840000000    -0.446351   
O67      O      0.010500000000     0.509890000000     0.610210000000    -0.459999   
O68      O      0.004400000000     0.513340000000     0.542960000000    -0.527822   
O69      O      0.526800000000     0.105390000000     0.048920000000    -0.422892   
O70      O      0.595630000000     0.021730000000     0.984810000000    -0.470103   
O71      O      0.555810000000     0.079190000000     0.955480000000    -0.465321   
O72      O      0.531060000000     0.007990000000     0.038320000000    -0.447651   
O73      O      0.611250000000     0.084410000000     0.949950000000    -0.491318   
O74      O      0.512130000000     0.035040000000     0.070540000000    -0.433996   
O75      O      0.591100000000     0.004070000000     0.036360000000    -0.41853    
O76      O      0.519490000000     0.084290000000     0.000040000000    -0.452669   
O77      O      0.585210000000     0.069670000000     0.102910000000    -0.452136   
O78      O      0.662890000000     0.128400000000     0.998270000000    -0.488893   
O79      O      0.588970000000     0.154990000000     0.023110000000    -0.440241   
O80      O      0.636230000000     0.070610000000     0.074040000000    -0.413917   
O81      O      0.656350000000     0.067990000000     0.027110000000    -0.492444   
O82      O      0.603160000000     0.137910000000     0.071710000000    -0.427918   
O83      O      0.569370000000     0.008850000000     0.094070000000    -0.407457   
O84      O      0.626070000000     0.149850000000     0.975210000000    -0.443673   
O85      O      0.586970000000     0.079120000000     0.022010000000    -0.544119   
O86      O      0.410550000000     0.000970000000     0.495530000000    -0.458726   
O87      O      0.550180000000     0.993530000000     0.473940000000    -0.377856   
O88      O      0.497480000000     0.058420000000     0.450650000000    -0.441018   
O89      O      0.469520000000     0.952070000000     0.562600000000    -0.386653   
O90      O      0.487830000000     0.998920000000     0.457780000000    -0.408516   
O91      O      0.426750000000     0.952900000000     0.527700000000    -0.454173   
O92      O      0.501170000000     0.956250000000     0.504880000000    -0.430395   
O93      O      0.446840000000     0.063320000000     0.484940000000    -0.474413   
O94      O      0.459220000000     0.005760000000     0.581340000000    -0.441595   
O95      O      0.561030000000     0.063110000000     0.469590000000    -0.379949   
O96      O      0.500470000000     0.096440000000     0.536550000000    -0.460802   
O97      O      0.546210000000     0.981000000000     0.559940000000    -0.372657   
O98      O      0.568850000000     0.034000000000     0.528250000000    -0.428407   
O99      O      0.440620000000     0.053040000000     0.548100000000    -0.445474   
O100     O      0.522030000000     0.028930000000     0.576170000000    -0.395713   
O101     O      0.551560000000     0.095840000000     0.504530000000    -0.474187   
O102     O      0.488220000000     0.025740000000     0.516350000000    -0.592109   
O103     O      0.501970000000     0.494010000000     0.025510000000    -0.438942   
O104     O      0.556400000000     0.615360000000     0.005180000000    -0.454509   
O105     O      0.505630000000     0.541270000000     0.092380000000    -0.412718   
O106     O      0.610850000000     0.583430000000     0.977710000000    -0.426998   
O107     O      0.507020000000     0.567750000000     0.043910000000    -0.470804   
O108     O      0.548510000000     0.542200000000     0.980390000000    -0.458722   
O109     O      0.618700000000     0.645260000000     0.005110000000    -0.450311   
O110     O      0.515080000000     0.484420000000     0.076250000000    -0.470064   
O111     O      0.609110000000     0.526300000000     0.002740000000    -0.422786   
O112     O      0.554590000000     0.606180000000     0.100250000000    -0.427591   
O113     O      0.592960000000     0.518490000000     0.092660000000    -0.414745   
O114     O      0.646120000000     0.628110000000     0.064520000000    -0.447443   
O115     O      0.607900000000     0.652770000000     0.061300000000    -0.445434   
O116     O      0.564540000000     0.483360000000     0.048420000000    -0.44596    
O117     O      0.642210000000     0.569810000000     0.039710000000    -0.47512    
O118     O      0.590020000000     0.580280000000     0.112360000000    -0.447882   
O119     O      0.573290000000     0.564830000000     0.045430000000    -0.527246   
O120     O      0.446690000000     0.435080000000     0.508010000000    -0.431139   
O121     O      0.480170000000     0.590340000000     0.518660000000    -0.446815   
O122     O      0.412000000000     0.484500000000     0.579530000000    -0.404071   
O123     O      0.528600000000     0.555760000000     0.482950000000    -0.456275   
O124     O      0.420460000000     0.533020000000     0.546820000000    -0.451897   
O125     O      0.498240000000     0.494030000000     0.474700000000    -0.41745    
O126     O      0.542390000000     0.608970000000     0.518600000000    -0.398531   
O127     O      0.415070000000     0.458210000000     0.527240000000    -0.442808   
O128     O      0.554170000000     0.513900000000     0.527020000000    -0.471283   
O129     O      0.467280000000     0.542910000000     0.604200000000    -0.449179   
O130     O      0.434240000000     0.430890000000     0.581980000000    -0.42269    
O131     O      0.553070000000     0.566680000000     0.574890000000    -0.455207   
O132     O      0.525230000000     0.601240000000     0.575980000000    -0.458763   
O133     O      0.494270000000     0.453530000000     0.565130000000    -0.431677   
O134     O      0.590320000000     0.578620000000     0.522030000000    -0.414482   
O135     O      0.488130000000     0.501660000000     0.601300000000    -0.428615   
O136     O      0.483280000000     0.525270000000     0.537600000000    -0.620077   


