data_structure

_audit_creation_method RASPA-1.0
_audit_creation_date 2023-6-4
_audit_author_name 'Poobodin Mano'

_cell_length_a    39.3499
_cell_length_b    39.9711
_cell_length_c    40.6879
_cell_angle_alpha 87.1334
_cell_angle_beta  93.82
_cell_angle_gamma 120.432
_cell_volume      55047.2

_symmetry_cell_setting          triclinic
_symmetry_space_group_name_Hall 'P 1'
_symmetry_space_group_name_H-M  'P 1'
_symmetry_Int_Tables_number     1

_symmetry_equiv_pos_as_xyz 'x,y,z'

loop_
_atom_site_label
_atom_site_type_symbol
_atom_site_fract_x
_atom_site_fract_y
_atom_site_fract_z
_atom_site_charge
C1       C      0.043440000000     0.111270000000     0.008920000000     0.448617   
C2       C      0.933440000000     0.945490000000     0.008300000000     0.456452   
C3       C      0.046240000000     0.059870000000     0.952190000000     0.459283   
C4       C      0.936850000000     0.994680000000     0.062310000000     0.460468   
C5       C      0.027480000000     0.019370000000     0.111210000000     0.472292   
C6       C      0.088460000000     0.006090000000     0.992140000000     0.455188   
C7       C      0.092700000000     0.093780000000     0.076670000000     0.452068   
C8       C      0.018580000000     0.933170000000     0.020970000000     0.46208    
C9       C      0.078500000000     0.044760000000     0.454830000000     0.481483   
C10      C      0.042140000000     0.122090000000     0.582950000000     0.41359    
C11      C      0.994670000000     0.059940000000     0.510060000000     0.487241   
C12      C      0.138590000000     0.139200000000     0.492680000000     0.457661   
C13      C      0.173850000000     0.107220000000     0.561220000000     0.44552    
C14      C      0.991350000000     0.985130000000     0.564390000000     0.476389   
C15      C      0.084770000000     0.981530000000     0.519660000000     0.490823   
C16      C      0.093810000000     0.075890000000     0.614540000000     0.469684   
C17      C      0.947480000000     0.426170000000     0.020520000000     0.487067   
C18      C      0.982580000000     0.578730000000     0.042350000000     0.467685   
C19      C      0.927860000000     0.506380000000     0.096820000000     0.468402   
C20      C      0.037140000000     0.535590000000     0.982240000000     0.472634   
C21      C      0.104170000000     0.549980000000     0.054420000000     0.488211   
C22      C      0.007290000000     0.497800000000     0.142630000000     0.44972    
C23      C      0.016860000000     0.433510000000     0.083890000000     0.471032   
C24      C      0.081860000000     0.624940000000     0.073080000000     0.414389   
C25      C      0.991630000000     0.432410000000     0.537790000000     0.496993   
C26      C      0.105540000000     0.642250000000     0.547800000000     0.378336   
C27      C      0.994720000000     0.545610000000     0.553420000000     0.492964   
C28      C      0.052200000000     0.519050000000     0.489920000000     0.439771   
C29      C      0.145380000000     0.547450000000     0.528540000000     0.444867   
C30      C      0.030050000000     0.540820000000     0.637100000000     0.466102   
C31      C      0.053850000000     0.445900000000     0.609270000000     0.476348   
C32      C      0.141690000000     0.593390000000     0.601240000000     0.453537   
C33      C      0.444160000000     0.037450000000     0.990300000000     0.463405   
C34      C      0.488660000000     0.932930000000     0.017430000000     0.468157   
C35      C      0.518380000000     0.051090000000     0.950650000000     0.451217   
C36      C      0.442320000000     0.966320000000     0.085030000000     0.514328   
C37      C      0.531640000000     0.053570000000     0.109070000000     0.51215    
C38      C      0.597760000000     0.089050000000     0.012420000000     0.445515   
C39      C      0.479500000000     0.096270000000     0.058950000000     0.391567   
C40      C      0.588060000000     0.001490000000     0.040440000000     0.487451   
C41      C      0.480920000000     0.061290000000     0.493830000000     0.458812   
C42      C      0.527950000000     0.947360000000     0.513760000000     0.456344   
C43      C      0.542840000000     0.064480000000     0.448840000000     0.460063   
C44      C      0.475030000000     0.951030000000     0.563480000000     0.449932   
C45      C      0.537760000000     0.039700000000     0.609710000000     0.461422   
C46      C      0.633230000000     0.100290000000     0.499880000000     0.450722   
C47      C      0.534370000000     0.105300000000     0.567760000000     0.452641   
C48      C      0.627000000000     0.029170000000     0.532540000000     0.463301   
C49      C      0.422810000000     0.443130000000     0.009140000000     0.471968   
C50      C      0.491720000000     0.597370000000     0.995590000000     0.473724   
C51      C      0.448210000000     0.552370000000     0.077320000000     0.457615   
C52      C      0.522180000000     0.513810000000     0.950480000000     0.527524   
C53      C      0.596250000000     0.541280000000     0.018920000000     0.515666   
C54      C      0.523830000000     0.532060000000     0.108310000000     0.461678   
C55      C      0.487740000000     0.443310000000     0.074290000000     0.474912   
C56      C      0.574380000000     0.640890000000     0.052060000000     0.439818   
C57      C      0.500060000000     0.466660000000     0.485740000000     0.448266   
C58      C      0.563530000000     0.629000000000     0.516440000000     0.4592     
C59      C      0.496310000000     0.565670000000     0.550860000000     0.457393   
C60      C      0.572550000000     0.532270000000     0.449170000000     0.460796   
C61      C      0.656190000000     0.566870000000     0.510610000000     0.457689   
C62      C      0.537980000000     0.519210000000     0.607590000000     0.45699    
C63      C      0.540730000000     0.457190000000     0.564070000000     0.450416   
C64      C      0.651080000000     0.629820000000     0.550150000000     0.456834   
C65      C      0.555820000000     0.502570000000     0.695690000000    -0.103413   
C66      C      0.502830000000     0.471660000000     0.904720000000     0.0790783  
C67      C      0.532640000000     0.539650000000     0.895760000000     0.080556   
C68      C      0.500230000000     0.465960000000     0.870740000000    -0.0965806  
C69      C      0.496730000000     0.511840000000     0.791400000000    -0.0355027  
C70      C      0.497850000000     0.510280000000     0.757300000000    -0.034629   
C71      C      0.511520000000     0.493000000000     0.812770000000    -0.00770802 
C72      C      0.529830000000     0.534930000000     0.861770000000    -0.0971924  
C73      C      0.514290000000     0.490260000000     0.743820000000    -0.00896488 
C74      C      0.488600000000     0.486890000000     0.685340000000    -0.0972183  
C75      C      0.528150000000     0.470520000000     0.765160000000    -0.0349673  
C76      C      0.495220000000     0.493500000000     0.651750000000     0.0742151  
C77      C      0.561990000000     0.509430000000     0.661800000000     0.10018    
C78      C      0.526470000000     0.471610000000     0.799340000000    -0.0354679  
C79      C      0.513630000000     0.497840000000     0.848890000000     0.0525004  
C80      C      0.519360000000     0.492510000000     0.707790000000     0.0543519  
C81      C      0.547670000000     0.535740000000     0.360320000000    -0.105248   
C82      C      0.512240000000     0.497520000000     0.159410000000     0.078701   
C83      C      0.574270000000     0.554110000000     0.151340000000     0.0800234  
C84      C      0.523210000000     0.494670000000     0.192260000000    -0.0950326  
C85      C      0.560230000000     0.489780000000     0.259480000000    -0.0361025  
C86      C      0.562890000000     0.489720000000     0.293980000000    -0.0347674  
C87      C      0.568760000000     0.523920000000     0.241460000000    -0.00714033 
C88      C      0.585970000000     0.552510000000     0.184350000000    -0.0946059  
C89      C      0.573470000000     0.523640000000     0.310940000000    -0.00974541 
C90      C      0.589990000000     0.508720000000     0.368460000000    -0.0977286  
C91      C      0.583660000000     0.558080000000     0.292930000000    -0.0347687  
C92      C      0.588430000000     0.510570000000     0.402520000000     0.073245   
C93      C      0.545610000000     0.536420000000     0.394500000000     0.100627   
C94      C      0.581600000000     0.558300000000     0.258550000000    -0.0355374  
C95      C      0.559920000000     0.523030000000     0.205380000000     0.0517687  
C96      C      0.570630000000     0.522730000000     0.347100000000     0.0548477  
C97      C      0.486230000000     0.850930000000     0.475290000000    -0.104828   
C98      C      0.549160000000     0.674790000000     0.537050000000     0.0781639  
C99      C      0.529320000000     0.653700000000     0.482020000000     0.0755904  
C100     C      0.532190000000     0.698100000000     0.533320000000    -0.095548   
C101     C      0.511680000000     0.754360000000     0.472030000000    -0.0359685  
C102     C      0.505970000000     0.786190000000     0.471700000000    -0.0343952  
C103     C      0.499340000000     0.727560000000     0.498520000000    -0.00796303 
C104     C      0.512540000000     0.677330000000     0.477260000000    -0.0952919  
C105     C      0.487720000000     0.791690000000     0.497820000000    -0.00958573 
C106     C      0.503560000000     0.847750000000     0.532530000000    -0.0979073  
C107     C      0.471970000000     0.762750000000     0.522600000000    -0.0350649  
C108     C      0.513710000000     0.886220000000     0.535490000000     0.0778913  
C109     C      0.496130000000     0.889790000000     0.478890000000     0.103692   
C110     C      0.477810000000     0.731040000000     0.522990000000    -0.0364066  
C111     C      0.513840000000     0.699800000000     0.503150000000     0.0515616  
C112     C      0.491060000000     0.830020000000     0.501990000000     0.0554899  
C113     C      0.566220000000     0.204900000000     0.594370000000    -0.102812   
C114     C      0.500180000000     0.389330000000     0.575250000000     0.0740584  
C115     C      0.569310000000     0.420190000000     0.585970000000     0.0711792  
C116     C      0.496510000000     0.352920000000     0.581800000000    -0.0939008  
C117     C      0.503170000000     0.282030000000     0.569870000000    -0.0359318  
C118     C      0.503450000000     0.247170000000     0.569970000000    -0.03485    
C119     C      0.527860000000     0.311420000000     0.592150000000    -0.00665913 
C120     C      0.566710000000     0.384370000000     0.592760000000    -0.0934265  
C121     C      0.528400000000     0.240600000000     0.592370000000    -0.00877714 
C122     C      0.496050000000     0.168810000000     0.584170000000    -0.097276   
C123     C      0.552400000000     0.269570000000     0.615220000000    -0.0349639  
C124     C      0.498460000000     0.135880000000     0.578950000000     0.0738994  
C125     C      0.567980000000     0.171200000000     0.589210000000     0.0982497  
C126     C      0.552120000000     0.304520000000     0.615120000000    -0.0361094  
C127     C      0.530190000000     0.349950000000     0.589660000000     0.0484749  
C128     C      0.530230000000     0.204280000000     0.590730000000     0.0529843  
C129     C      0.574320000000     0.072990000000     0.695070000000    -0.105706   
C130     C      0.537620000000     0.089470000000     0.901510000000     0.0757524  
C131     C      0.500670000000     0.020730000000     0.898670000000     0.0721721  
C132     C      0.540000000000     0.092650000000     0.867330000000    -0.0965347  
C133     C      0.516150000000     0.082990000000     0.792180000000    -0.0360585  
C134     C      0.519850000000     0.084010000000     0.758160000000    -0.0348326  
C135     C      0.528390000000     0.061570000000     0.812950000000    -0.00805588 
C136     C      0.503200000000     0.022850000000     0.864560000000    -0.0967257  
C137     C      0.536690000000     0.064380000000     0.744700000000    -0.0102198  
C138     C      0.505010000000     0.050400000000     0.688330000000    -0.0989935  
C139     C      0.549780000000     0.043800000000     0.765640000000    -0.034788   
C140     C      0.506330000000     0.044460000000     0.655160000000     0.0759137  
C141     C      0.575320000000     0.067770000000     0.661380000000     0.101717   
C142     C      0.545340000000     0.042120000000     0.799470000000    -0.0361118  
C143     C      0.523360000000     0.059060000000     0.848690000000     0.0512195  
C144     C      0.538880000000     0.063380000000     0.708770000000     0.0564676  
C145     C      0.553140000000     0.111890000000     0.366610000000    -0.105841   
C146     C      0.572200000000     0.070970000000     0.158190000000     0.0795702  
C147     C      0.521280000000     0.086270000000     0.151180000000     0.0784435  
C148     C      0.577630000000     0.080370000000     0.191330000000    -0.0972762  
C149     C      0.554590000000     0.061370000000     0.260890000000    -0.0351154  
C150     C      0.550450000000     0.058490000000     0.294750000000    -0.0343389  
C151     C      0.550510000000     0.089560000000     0.241810000000    -0.00718903 
C152     C      0.525270000000     0.095060000000     0.184550000000    -0.0951098  
C153     C      0.541590000000     0.083360000000     0.310570000000    -0.00908777 
C154     C      0.517850000000     0.042610000000     0.361730000000    -0.0976452  
C155     C      0.537880000000     0.111930000000     0.291720000000    -0.0344472  
C156     C      0.518340000000     0.038900000000     0.395880000000     0.0735555  
C157     C      0.552730000000     0.107520000000     0.401080000000     0.107461   
C158     C      0.542250000000     0.114970000000     0.257630000000    -0.0356076  
C159     C      0.552210000000     0.089970000000     0.205410000000     0.0516167  
C160     C      0.536960000000     0.079340000000     0.346710000000     0.0559104  
C161     C      0.429520000000     0.640730000000     0.988440000000    -0.101948   
C162     C      0.460240000000     0.880180000000     0.980030000000     0.0744891  
C163     C      0.476190000000     0.870390000000     0.035490000000     0.0765813  
C164     C      0.451010000000     0.842620000000     0.972320000000    -0.0946008  
C165     C      0.464200000000     0.775510000000     0.959120000000    -0.035583   
C166     C      0.464350000000     0.741240000000     0.953670000000    -0.0347324  
C167     C      0.450340000000     0.780400000000     0.988500000000    -0.00687792 
C168     C      0.467250000000     0.832860000000     0.028670000000    -0.0954596  
C169     C      0.450850000000     0.711060000000     0.977520000000    -0.00805636 
C170     C      0.489380000000     0.680530000000     0.960200000000    -0.0954306  
C171     C      0.435220000000     0.715340000000     0.006140000000    -0.0340926  
C172     C      0.497790000000     0.650410000000     0.963670000000     0.0788069  
C173     C      0.439140000000     0.611390000000     0.992130000000     0.105471   
C174     C      0.434740000000     0.749350000000     0.011420000000    -0.0358115  
C175     C      0.455420000000     0.818730000000     0.996590000000     0.0500209  
C176     C      0.456050000000     0.676790000000     0.974420000000     0.0547012  
C177     C      0.512790000000     0.367800000000     0.098990000000    -0.104519   
C178     C      0.439830000000     0.120340000000     0.077850000000     0.0713837  
C179     C      0.509280000000     0.161030000000     0.077190000000     0.071535   
C180     C      0.436050000000     0.151550000000     0.087220000000    -0.0922913  
C181     C      0.439430000000     0.230060000000     0.078980000000    -0.0363362  
C182     C      0.440950000000     0.265680000000     0.080690000000    -0.0342898  
C183     C      0.466790000000     0.223170000000     0.097500000000    -0.00629861 
C184     C      0.506640000000     0.192520000000     0.086960000000    -0.0929562  
C185     C      0.469780000000     0.295180000000     0.101070000000    -0.00938806 
C186     C      0.442490000000     0.340200000000     0.095700000000    -0.0980654  
C187     C      0.495540000000     0.287310000000     0.121100000000    -0.0347612  
C188     C      0.448010000000     0.377290000000     0.089830000000     0.0728447  
C189     C      0.517700000000     0.404910000000     0.093180000000     0.0997852  
C190     C      0.494120000000     0.251770000000     0.119280000000    -0.0366701  
C191     C      0.469710000000     0.188360000000     0.091340000000     0.0481537  
C192     C      0.475000000000     0.334870000000     0.099200000000     0.0534823  
C193     C      0.731890000000     0.161060000000     0.465280000000    -0.1049     
C194     C      0.924910000000     0.393430000000     0.518090000000     0.0748238  
C195     C      0.968470000000     0.368730000000     0.518460000000     0.075874   
C196     C      0.893390000000     0.357840000000     0.507540000000    -0.0963177  
C197     C      0.859330000000     0.255520000000     0.516900000000    -0.0358728  
C198     C      0.823890000000     0.220070000000     0.514490000000    -0.0350632  
C199     C      0.864910000000     0.287370000000     0.496760000000    -0.00782255 
C200     C      0.937400000000     0.332470000000     0.508490000000    -0.0966478  
C201     C      0.793660000000     0.215660000000     0.491540000000    -0.00932142 
C202     C      0.735050000000     0.171420000000     0.523300000000    -0.0964909  
C203     C      0.800310000000     0.246640000000     0.469860000000    -0.0348032  
C204     C      0.695250000000     0.143620000000     0.524370000000     0.07636    
C205     C      0.691800000000     0.132260000000     0.467020000000     0.103594   
C206     C      0.835500000000     0.282280000000     0.472620000000    -0.0359282  
C207     C      0.899220000000     0.326560000000     0.503450000000     0.0506179  
C208     C      0.753480000000     0.181330000000     0.493420000000     0.0553265  
C209     C      0.247310000000     0.653550000000     0.608330000000    -0.102388   
C210     C      0.448980000000     0.894930000000     0.598870000000     0.0723067  
C211     C      0.412210000000     0.895640000000     0.550570000000     0.0724992  
C212     C      0.418450000000     0.857860000000     0.607560000000    -0.0946513  
C213     C      0.335420000000     0.791960000000     0.627320000000    -0.0362209  
C214     C      0.302840000000     0.755580000000     0.634820000000    -0.0351698  
C215     C      0.351150000000     0.799900000000     0.595920000000    -0.00700918 
C216     C      0.381520000000     0.858300000000     0.558150000000    -0.0932754  
C217     C      0.285900000000     0.726140000000     0.611310000000    -0.00826855 
C218     C      0.216930000000     0.685720000000     0.631350000000    -0.093938   
C219     C      0.302320000000     0.733900000000     0.580200000000    -0.0338683  
C220     C      0.180830000000     0.650600000000     0.630570000000     0.0780557  
C221     C      0.210870000000     0.618810000000     0.608180000000     0.106259   
C222     C      0.334330000000     0.770390000000     0.572530000000    -0.0362525  
C223     C      0.384180000000     0.839130000000     0.587130000000     0.0487564  
C224     C      0.250010000000     0.687970000000     0.618010000000     0.0547157  
C225     C      0.753260000000     0.578830000000     0.537260000000    -0.103467   
C226     C      0.927150000000     0.525540000000     0.541610000000     0.0795723  
C227     C      0.976530000000     0.589260000000     0.526640000000     0.0802749  
C228     C      0.897570000000     0.533470000000     0.530610000000    -0.0966098  
C229     C      0.875600000000     0.609410000000     0.528000000000    -0.0356549  
C230     C      0.842350000000     0.613720000000     0.525510000000    -0.0352641  
C231     C      0.876050000000     0.580070000000     0.510740000000    -0.00778335 
C232     C      0.947540000000     0.598540000000     0.516250000000    -0.0951295  
C233     C      0.809430000000     0.589400000000     0.505110000000    -0.00948826 
C234     C      0.752490000000     0.595080000000     0.479690000000    -0.0969399  
C235     C      0.810930000000     0.561790000000     0.486190000000    -0.0349856  
C236     C      0.714940000000     0.590290000000     0.482230000000     0.0725052  
C237     C      0.715230000000     0.573140000000     0.539110000000     0.0992516  
C238     C      0.843800000000     0.556870000000     0.489250000000    -0.0361633  
C239     C      0.907560000000     0.570510000000     0.518460000000     0.0517897  
C240     C      0.771630000000     0.588660000000     0.507300000000     0.053879   
C241     C      0.239830000000     0.550190000000     0.531470000000    -0.10681    
C242     C      0.470230000000     0.601730000000     0.573540000000     0.0739889  
C243     C      0.448840000000     0.575690000000     0.520090000000     0.0763468  
C244     C      0.443320000000     0.615100000000     0.571480000000    -0.0951521  
C245     C      0.372860000000     0.627320000000     0.512650000000    -0.0362872  
C246     C      0.335040000000     0.622610000000     0.508540000000    -0.0351173  
C247     C      0.384520000000     0.614880000000     0.542060000000    -0.00832611 
C248     C      0.422390000000     0.589170000000     0.516990000000    -0.0942724  
C249     C      0.308420000000     0.605340000000     0.533750000000    -0.0102974  
C250     C      0.250160000000     0.613560000000     0.516610000000    -0.0970341  
C251     C      0.321520000000     0.596760000000     0.564250000000    -0.0356347  
C252     C      0.209100000000     0.597730000000     0.514140000000     0.0783474  
C253     C      0.199050000000     0.535010000000     0.528650000000     0.111732   
C254     C      0.359250000000     0.601620000000     0.568430000000    -0.035757   
C255     C      0.418460000000     0.608170000000     0.543120000000     0.0500373  
C256     C      0.265650000000     0.589910000000     0.527040000000     0.0558935  
C257     C      0.053930000000     0.587700000000     0.900690000000    -0.102009   
C258     C      0.042010000000     0.583670000000     0.681260000000     0.0772842  
C259     C      0.012360000000     0.515910000000     0.691320000000     0.0781041  
C260     C      0.042230000000     0.589780000000     0.715050000000    -0.0932757  
C261     C      0.993620000000     0.537750000000     0.790930000000    -0.0356882  
C262     C      0.995360000000     0.537100000000     0.825320000000    -0.0345848  
C263     C      0.027230000000     0.562720000000     0.773360000000    -0.00699758 
C264     C      0.011450000000     0.520870000000     0.724810000000    -0.0953384  
C265     C      0.030840000000     0.561260000000     0.843170000000    -0.00856512 
C266     C      0.016110000000     0.518890000000     0.893670000000    -0.0960225  
C267     C      0.063890000000     0.588050000000     0.825630000000    -0.0345004  
C268     C      0.018340000000     0.513620000000     0.927640000000     0.0757248  
C269     C      0.055760000000     0.581830000000     0.935160000000     0.100273   
C270     C      0.062070000000     0.588800000000     0.791010000000    -0.0351815  
C271     C      0.026770000000     0.558050000000     0.737220000000     0.0510527  
C272     C      0.033680000000     0.556130000000     0.879670000000     0.0543108  
C273     C      0.017520000000     0.526760000000     0.403680000000    -0.101492   
C274     C      0.980930000000     0.463980000000     0.193180000000     0.0752895  
C275     C      0.044900000000     0.519670000000     0.193240000000     0.0740271  
C276     C      0.982490000000     0.462830000000     0.227740000000    -0.0938765  
C277     C      0.986310000000     0.489460000000     0.298840000000    -0.0356485  
C278     C      0.989270000000     0.493170000000     0.333180000000    -0.0346112  
C279     C      0.017700000000     0.492090000000     0.281980000000    -0.00686513 
C280     C      0.047710000000     0.518950000000     0.227620000000    -0.0936112  
C281     C      0.023420000000     0.498950000000     0.351370000000    -0.00880569 
C282     C      0.041050000000     0.481860000000     0.407160000000    -0.096953   
C283     C      0.054520000000     0.501060000000     0.334480000000    -0.0344403  
C284     C      0.047220000000     0.487040000000     0.441040000000     0.0757316  
C285     C      0.024190000000     0.531850000000     0.438100000000     0.101133   
C286     C      0.051780000000     0.497870000000     0.300230000000    -0.0359145  
C287     C      0.015940000000     0.490950000000     0.245360000000     0.0495848  
C288     C      0.026960000000     0.502410000000     0.387880000000     0.054623   
C289     C      0.851850000000     0.344890000000     0.991370000000    -0.106969   
C290     C      0.659750000000     0.109780000000     0.989560000000     0.0765276  
C291     C      0.655750000000     0.144300000000     0.033510000000     0.0766625  
C292     C      0.699380000000     0.137940000000     0.986080000000    -0.0961763  
C293     C      0.786420000000     0.215700000000     0.026690000000    -0.0368169  
C294     C      0.821550000000     0.251020000000     0.023430000000    -0.0346412  
C295     C      0.757170000000     0.202690000000     0.001100000000    -0.00788706 
C296     C      0.695480000000     0.172300000000     0.031320000000    -0.0955028  
C297     C      0.827440000000     0.274170000000     0.994860000000    -0.0106929  
C298     C      0.899040000000     0.323740000000     0.001430000000    -0.0999612  
C299     C      0.799010000000     0.260230000000     0.968630000000    -0.0349409  
C300     C      0.928440000000     0.362160000000     0.006760000000     0.0753125  
C301     C      0.881670000000     0.383180000000     0.997630000000     0.104321   
C302     C      0.764260000000     0.224480000000     0.971600000000    -0.0360598  
C303     C      0.717280000000     0.169850000000     0.006790000000     0.0515107  
C304     C      0.860160000000     0.314790000000     0.994750000000     0.0557791  
C305     C      0.163010000000     0.707300000000     0.119550000000    -0.10521    
C306     C      0.405900000000     0.902280000000     0.107500000000     0.0797345  
C307     C      0.375380000000     0.940150000000     0.096970000000     0.0820195  
C308     C      0.369340000000     0.869400000000     0.113290000000    -0.0964337  
C309     C      0.286570000000     0.804110000000     0.128780000000    -0.0354447  
C310     C      0.250420000000     0.769670000000     0.124670000000    -0.034393   
C311     C      0.295490000000     0.836420000000     0.108040000000    -0.0072994  
C312     C      0.338670000000     0.908250000000     0.103270000000    -0.0969432  
C313     C      0.222720000000     0.767000000000     0.099700000000    -0.00911115 
C314     C      0.172310000000     0.717520000000     0.061420000000    -0.0969398  
C315     C      0.231220000000     0.799650000000     0.079690000000    -0.0344197  
C316     C      0.137310000000     0.682860000000     0.055710000000     0.0756863  
C317     C      0.127610000000     0.672420000000     0.113350000000     0.104247   
C318     C      0.267200000000     0.833870000000     0.083710000000    -0.0347399  
C319     C      0.334990000000     0.871880000000     0.109590000000     0.0530909  
C320     C      0.185580000000     0.730000000000     0.093550000000     0.0563382  
C321     C      0.672420000000     0.514060000000     0.036580000000    -0.106889   
C322     C      0.898240000000     0.540790000000     0.116500000000     0.0749307  
C323     C      0.864830000000     0.493190000000     0.075490000000     0.0755152  
C324     C      0.868030000000     0.549940000000     0.114060000000    -0.0963068  
C325     C      0.808120000000     0.573000000000     0.074470000000    -0.0355802  
C326     C      0.775420000000     0.577040000000     0.064650000000    -0.0346658  
C327     C      0.802590000000     0.537810000000     0.088450000000    -0.00775964 
C328     C      0.833970000000     0.500890000000     0.073050000000    -0.0950757  
C329     C      0.736800000000     0.545910000000     0.068750000000    -0.00923142 
C330     C      0.696970000000     0.578990000000     0.054510000000    -0.0965651  
C331     C      0.731770000000     0.511910000000     0.085060000000    -0.0346056  
C332     C      0.662270000000     0.577180000000     0.041040000000     0.0769099  
C333     C      0.638200000000     0.512910000000     0.023070000000     0.111882   
C334     C      0.764220000000     0.507800000000     0.094520000000    -0.0362217  
C335     C      0.835510000000     0.529770000000     0.092080000000     0.0504953  
C336     C      0.701660000000     0.546620000000     0.053370000000     0.0562561  
C337     C      0.207050000000     0.572710000000     0.047850000000    -0.105684   
C338     C      0.431430000000     0.595010000000     0.101740000000     0.0778498  
C339     C      0.381460000000     0.533730000000     0.081810000000     0.07723    
C340     C      0.402870000000     0.605080000000     0.107230000000    -0.0950593  
C341     C      0.300210000000     0.567630000000     0.121620000000    -0.0361087  
C342     C      0.265600000000     0.569330000000     0.116500000000    -0.0350385  
C343     C      0.331910000000     0.588860000000     0.101060000000    -0.00848045 
C344     C      0.352340000000     0.542210000000     0.088040000000    -0.0963578  
C345     C      0.261860000000     0.591600000000     0.090230000000    -0.00939829 
C346     C      0.198680000000     0.589420000000     0.101410000000    -0.0964652  
C347     C      0.294570000000     0.614850000000     0.071080000000    -0.0357712  
C348     C      0.160010000000     0.579450000000     0.091440000000     0.0768414  
C349     C      0.167950000000     0.562080000000     0.038540000000     0.107129   
C350     C      0.329470000000     0.613710000000     0.076620000000    -0.0351541  
C351     C      0.362930000000     0.578540000000     0.099910000000     0.0510713  
C352     C      0.222360000000     0.585510000000     0.079650000000     0.0556174  
C353     C      0.734910000000     0.703700000000     0.602210000000    -0.103681   
C354     C      0.958300000000     0.917570000000     0.575850000000     0.0760875  
C355     C      0.929970000000     0.954290000000     0.591010000000     0.0752052  
C356     C      0.924640000000     0.883110000000     0.584310000000    -0.0952977  
C357     C      0.852450000000     0.813050000000     0.610780000000    -0.0361403  
C358     C      0.818400000000     0.776660000000     0.606620000000    -0.0347815  
C359     C      0.853740000000     0.846820000000     0.597360000000    -0.00703642 
C360     C      0.895240000000     0.920040000000     0.599170000000    -0.0940462  
C361     C      0.785050000000     0.773320000000     0.588770000000    -0.0092906  
C362     C      0.735740000000     0.728300000000     0.547150000000    -0.0980463  
C363     C      0.785440000000     0.807320000000     0.577380000000    -0.0348272  
C364     C      0.703700000000     0.692480000000     0.538290000000     0.075832   
C365     C      0.702180000000     0.667630000000     0.592860000000     0.0994557  
C366     C      0.819360000000     0.843680000000     0.581700000000    -0.0357798  
C367     C      0.891970000000     0.883830000000     0.594940000000     0.0499402  
C368     C      0.751240000000     0.734620000000     0.579500000000     0.0546094  
C369     C      0.227470000000     0.200140000000     0.446910000000    -0.106757   
C370     C      0.434700000000     0.439350000000     0.462760000000     0.0715859  
C371     C      0.464830000000     0.400850000000     0.468140000000     0.0737732  
C372     C      0.398190000000     0.406940000000     0.454930000000    -0.0940901  
C373     C      0.322220000000     0.335540000000     0.434620000000    -0.0357322  
C374     C      0.283710000000     0.303870000000     0.435960000000    -0.0352849  
C375     C      0.354090000000     0.334560000000     0.451890000000    -0.00675433 
C376     C      0.428660000000     0.367680000000     0.459810000000    -0.0936788  
C377     C      0.276390000000     0.270120000000     0.453740000000    -0.00937715 
C378     C      0.206620000000     0.240080000000     0.470850000000    -0.0961867  
C379     C      0.308130000000     0.268300000000     0.469780000000    -0.0345824  
C380     C      0.171520000000     0.206580000000     0.479310000000     0.0759154  
C381     C      0.191830000000     0.167130000000     0.454970000000     0.108036   
C382     C      0.346400000000     0.300190000000     0.469170000000    -0.0357961  
C383     C      0.394220000000     0.370090000000     0.454580000000     0.048512   
C384     C      0.235900000000     0.236650000000     0.456360000000     0.0563515  
C385     C      0.733040000000     0.062180000000     0.551040000000    -0.104537   
C386     C      0.926980000000     0.033210000000     0.493470000000     0.0800654  
C387     C      0.964670000000     0.098770000000     0.509750000000     0.0800497  
C388     C      0.892420000000     0.034920000000     0.492860000000    -0.0954409  
C389     C      0.823240000000     0.047120000000     0.483930000000    -0.0358435  
C390     C      0.787310000000     0.044580000000     0.488800000000    -0.0339235  
C391     C      0.856680000000     0.070090000000     0.504350000000    -0.00649048 
C392     C      0.930770000000     0.101760000000     0.508800000000    -0.0942329  
C393     C      0.783820000000     0.065870000000     0.513600000000    -0.00926552 
C394     C      0.717130000000     0.053060000000     0.493030000000    -0.0991303  
C395     C      0.817640000000     0.090150000000     0.533210000000    -0.0341599  
C396     C      0.678640000000     0.042610000000     0.498700000000     0.0818437  
C397     C      0.694120000000     0.053040000000     0.556120000000     0.1047     
C398     C      0.853530000000     0.091990000000     0.528830000000    -0.0356196  
C399     C      0.893780000000     0.069190000000     0.501450000000     0.0516446  
C400     C      0.744570000000     0.061240000000     0.519330000000     0.0562746  
C401     C      0.274900000000     0.144470000000     0.533840000000    -0.106712   
C402     C      0.459400000000     0.105360000000     0.476540000000     0.0775705  
C403     C      0.413200000000     0.037900000000     0.479880000000     0.07465    
C404     C      0.429150000000     0.113880000000     0.476190000000    -0.0968376  
C405     C      0.349370000000     0.115440000000     0.477220000000    -0.0370113  
C406     C      0.322290000000     0.122680000000     0.491340000000    -0.0351988  
C407     C      0.362030000000     0.091950000000     0.494080000000    -0.00818559 
C408     C      0.382240000000     0.045310000000     0.479700000000    -0.0971744  
C409     C      0.308270000000     0.107010000000     0.522650000000    -0.0102123  
C410     C      0.245320000000     0.077480000000     0.550990000000    -0.0994898  
C411     C      0.322840000000     0.085280000000     0.539980000000    -0.0354027  
C412     C      0.213340000000     0.078940000000     0.561330000000     0.065329   
C413     C      0.242170000000     0.145370000000     0.544640000000     0.10365    
C414     C      0.349160000000     0.077590000000     0.525740000000    -0.0363685  
C415     C      0.390620000000     0.083710000000     0.480510000000     0.0513545  
C416     C      0.276000000000     0.110020000000     0.536150000000     0.054002   
C417     C      0.129890000000     0.735850000000     0.505300000000    -0.101769   
C418     C      0.125720000000     0.954840000000     0.533370000000     0.0785514  
C419     C      0.065320000000     0.917760000000     0.502720000000     0.0781282  
C420     C      0.134050000000     0.925020000000     0.532430000000    -0.0974807  
C421     C      0.133110000000     0.850790000000     0.547130000000    -0.0352407  
C422     C      0.138080000000     0.818670000000     0.549890000000    -0.0351159  
C423     C      0.114090000000     0.856840000000     0.518900000000    -0.00759675 
C424     C      0.072290000000     0.886770000000     0.502040000000    -0.0961601  
C425     C      0.123320000000     0.791090000000     0.524890000000    -0.00837661 
C426     C      0.114220000000     0.735620000000     0.561300000000    -0.0957046  
C427     C      0.105530000000     0.797650000000     0.496100000000    -0.034982   
C428     C      0.110810000000     0.699540000000     0.566230000000     0.0721994  
C429     C      0.126270000000     0.699120000000     0.510770000000     0.0987388  
C430     C      0.101100000000     0.830280000000     0.493080000000    -0.0352789  
C431     C      0.106930000000     0.890070000000     0.517250000000     0.0517541  
C432     C      0.123040000000     0.753970000000     0.530490000000     0.0537759  
C433     C      0.039730000000     0.210990000000     0.597630000000    -0.106305   
C434     C      0.019900000000     0.392210000000     0.645920000000     0.0781251  
C435     C      0.083230000000     0.408930000000     0.629170000000     0.0769508  
C436     C      0.013970000000     0.356770000000     0.658880000000    -0.0970048  
C437     C      0.060880000000     0.295510000000     0.669400000000    -0.0359822  
C438     C      0.055450000000     0.259120000000     0.662810000000    -0.0345193  
C439     C      0.032090000000     0.305040000000     0.658580000000    -0.00774019 
C440     C      0.078310000000     0.373770000000     0.641870000000    -0.0952084  
C441     C      0.021070000000     0.231750000000     0.645650000000    -0.0105529  
C442     C      0.006430000000     0.163490000000     0.640200000000    -0.0976678  
C443     C      0.990490000000     0.239520000000     0.638140000000    -0.0349638  
C444     C      0.011120000000     0.136700000000     0.623120000000     0.0729464  
C445     C      0.044070000000     0.183830000000     0.580880000000     0.102001   
C446     C      0.995860000000     0.275880000000     0.644700000000    -0.0353985  
C447     C      0.042350000000     0.346210000000     0.655090000000     0.0515101  
C448     C      0.022040000000     0.201240000000     0.627820000000     0.0558931  
C449     C      0.129080000000     0.097640000000     0.701280000000    -0.104578   
C450     C      0.020470000000     0.052990000000     0.896790000000     0.0740418  
C451     C      0.089030000000     0.093970000000     0.908880000000     0.0778961  
C452     C      0.026940000000     0.055960000000     0.863190000000    -0.0964834  
C453     C      0.060430000000     0.039840000000     0.803780000000    -0.0359845  
C454     C      0.068800000000     0.037710000000     0.771440000000    -0.0343995  
C455     C      0.073650000000     0.075950000000     0.817900000000    -0.00760137 
C456     C      0.096450000000     0.098220000000     0.875450000000    -0.09674    
C457     C      0.089930000000     0.071680000000     0.752260000000    -0.00900887 
C458     C      0.065490000000     0.039650000000     0.697570000000    -0.0968224  
C459     C      0.103580000000     0.107890000000     0.766730000000    -0.0339866  
C460     C      0.068130000000     0.040630000000     0.663610000000     0.0801301  
C461     C      0.130930000000     0.098240000000     0.666870000000     0.106408   
C462     C      0.095840000000     0.110000000000     0.799360000000    -0.0361084  
C463     C      0.065440000000     0.077650000000     0.852440000000     0.0515129  
C464     C      0.095260000000     0.069340000000     0.716740000000     0.0561336  
C465     C      0.057100000000     0.057550000000     0.366690000000    -0.104795   
C466     C      0.051530000000     0.003070000000     0.160980000000     0.0796529  
C467     C      0.049310000000     0.061230000000     0.156640000000     0.0794899  
C468     C      0.063890000000     0.009890000000     0.194220000000    -0.0942596  
C469     C      0.095280000000     0.030310000000     0.264440000000    -0.0351066  
C470     C      0.098720000000     0.032300000000     0.298860000000    -0.0343079  
C471     C      0.078940000000     0.049750000000     0.245470000000    -0.00628421 
C472     C      0.063890000000     0.070120000000     0.189080000000    -0.0953824  
C473     C      0.087200000000     0.054850000000     0.315270000000    -0.00840096 
C474     C      0.112770000000     0.048150000000     0.372470000000    -0.096803   
C475     C      0.074200000000     0.076870000000     0.296180000000    -0.0345008  
C476     C      0.109650000000     0.045740000000     0.406630000000     0.0760146  
C477     C      0.055570000000     0.056870000000     0.400960000000     0.104245   
C478     C      0.069130000000     0.073590000000     0.262100000000    -0.0348558  
C479     C      0.069730000000     0.043580000000     0.209110000000     0.0511942  
C480     C      0.086010000000     0.053670000000     0.351930000000     0.0552482  
C481     C      0.827390000000     0.916930000000     0.000530000000    -0.102481   
C482     C      0.622940000000     0.693540000000     0.021800000000     0.0787143  
C483     C      0.609180000000     0.704660000000     0.074710000000     0.0745168  
C484     C      0.651170000000     0.732430000000     0.018030000000    -0.0975368  
C485     C      0.702020000000     0.818160000000     0.009570000000    -0.0367749  
C486     C      0.739960000000     0.848980000000     0.003780000000    -0.0360951  
C487     C      0.693540000000     0.798500000000     0.040350000000    -0.00783531 
C488     C      0.637900000000     0.744170000000     0.071860000000    -0.0938942  
C489     C      0.769820000000     0.860730000000     0.028770000000    -0.0108716  
C490     C      0.836580000000     0.869350000000     0.031750000000    -0.098675   
C491     C      0.759790000000     0.844750000000     0.060700000000    -0.0364718  
C492     C      0.876130000000     0.889770000000     0.025080000000     0.0773609  
C493     C      0.867930000000     0.937330000000     0.993910000000     0.10246    
C494     C      0.722000000000     0.813820000000     0.066440000000    -0.0362264  
C495     C      0.659330000000     0.758400000000     0.043190000000     0.0507084  
C496     C      0.811920000000     0.883420000000     0.020610000000     0.0558782  
C497     C      0.318060000000     0.370730000000     0.014150000000    -0.106792   
C498     C      0.162440000000     0.128240000000     0.084240000000     0.0713073  
C499     C      0.126810000000     0.160920000000     0.088590000000     0.0778733  
C500     C      0.197340000000     0.163520000000     0.080560000000    -0.0959223  
C501     C      0.249070000000     0.231680000000     0.037700000000    -0.0355013  
C502     C      0.278420000000     0.265270000000     0.022840000000    -0.0348891  
C503     C      0.229630000000     0.233930000000     0.064580000000    -0.00700745 
C504     C      0.161100000000     0.196760000000     0.084730000000    -0.0948104  
C505     C      0.288840000000     0.301900000000     0.034380000000    -0.0100942  
C506     C      0.356440000000     0.339460000000     0.012850000000    -0.0997028  
C507     C      0.269480000000     0.304250000000     0.061250000000    -0.0347999  
C508     C      0.389030000000     0.375010000000     0.004780000000     0.0779764  
C509     C      0.351270000000     0.406160000000     0.005760000000     0.103922   
C510     C      0.240160000000     0.270600000000     0.076210000000    -0.036401   
C511     C      0.196260000000     0.198050000000     0.078200000000     0.0504856  
C512     C      0.321240000000     0.337610000000     0.019740000000     0.0557935  
C513     C      0.833590000000     0.948560000000     0.089400000000    -0.106142   
C514     C      0.628670000000     0.977060000000     0.025020000000     0.076246   
C515     C      0.638530000000     0.004420000000     0.077640000000     0.0744976  
C516     C      0.659120000000     0.969120000000     0.032400000000    -0.0961406  
C517     C      0.714900000000     0.941390000000     0.059690000000    -0.0352783  
C518     C      0.749540000000     0.939510000000     0.063180000000    -0.03604    
C519     C      0.714380000000     0.974080000000     0.070460000000    -0.00790071 
C520     C      0.668800000000     0.996640000000     0.085900000000    -0.0963293  
C521     C      0.784010000000     0.970270000000     0.077430000000    -0.00999816 
C522     C      0.849490000000     0.004260000000     0.054490000000    -0.10103    
C523     C      0.782870000000     0.001710000000     0.089940000000    -0.0354413  
C524     C      0.886730000000     0.009720000000     0.051440000000     0.0756828  
C525     C      0.871940000000     0.954830000000     0.086320000000     0.106846   
C526     C      0.748470000000     0.003630000000     0.086510000000    -0.0358106  
C527     C      0.679740000000     0.979110000000     0.063120000000     0.0507295  
C528     C      0.822670000000     0.973810000000     0.073720000000     0.0570177  
C529     C      0.171130000000     0.987430000000     0.998230000000    -0.103385   
C530     C      0.380880000000     0.990840000000     0.969140000000     0.0812688  
C531     C      0.402950000000     0.057750000000     0.961210000000     0.0770018  
C532     C      0.342740000000     0.981100000000     0.958190000000    -0.0940057  
C533     C      0.279120000000     0.023740000000     0.930870000000    -0.0356719  
C534     C      0.241400000000     0.018390000000     0.934090000000    -0.0350418  
C535     C      0.291410000000     0.000730000000     0.949470000000    -0.00656882 
C536     C      0.364620000000     0.049090000000     0.951190000000    -0.0926325  
C537     C      0.215290000000     0.989920000000     0.955940000000    -0.00862059 
C538     C      0.153210000000     0.992190000000     0.941290000000    -0.0967434  
C539     C      0.226440000000     0.965080000000     0.972500000000    -0.035201   
C540     C      0.121270000000     0.994830000000     0.951170000000     0.0723113  
C541     C      0.139200000000     0.990380000000     0.007590000000     0.0996879  
C542     C      0.263980000000     0.970540000000     0.969520000000    -0.0347382  
C543     C      0.333450000000     0.010350000000     0.951370000000     0.0506348  
C544     C      0.179050000000     0.989340000000     0.964990000000     0.0536997  
C545     C      0.013150000000     0.839560000000     0.041680000000    -0.106692   
C546     C      0.950530000000     0.614070000000     0.049380000000     0.0795773  
C547     C      0.972450000000     0.612990000000     0.996820000000     0.079588   
C548     C      0.946070000000     0.645490000000     0.039810000000    -0.0952442  
C549     C      0.941800000000     0.715310000000     0.016840000000    -0.0357859  
C550     C      0.954410000000     0.754670000000     0.018720000000    -0.0346534  
C551     C      0.965520000000     0.703260000000     0.002850000000    -0.00664718 
C552     C      0.968720000000     0.644930000000     0.986390000000    -0.093913   
C553     C      0.990390000000     0.782630000000     0.005900000000    -0.00989954 
C554     C      0.007470000000     0.847610000000     0.983050000000    -0.100024   
C555     C      0.012630000000     0.770820000000     0.989530000000    -0.0346956  
C556     C      0.014990000000     0.884990000000     0.987800000000     0.0783117  
C557     C      0.021710000000     0.877770000000     0.045940000000     0.103851   
C558     C      0.000470000000     0.731420000000     0.988230000000    -0.0349861  
C559     C      0.957940000000     0.663120000000     0.008820000000     0.0516325  
C560     C      0.004620000000     0.824050000000     0.010200000000     0.0570308  
C561     C      0.078800000000     0.215690000000     0.016950000000    -0.105856   
C562     C      0.990510000000     0.365300000000     0.089390000000     0.0760556  
C563     C      0.059230000000     0.407290000000     0.084210000000     0.073648   
C564     C      0.994150000000     0.333240000000     0.083100000000    -0.0967002  
C565     C      0.007310000000     0.283460000000     0.037460000000    -0.0358517  
C566     C      0.010940000000     0.254280000000     0.023570000000    -0.0352032  
C567     C      0.034200000000     0.306530000000     0.062540000000    -0.00762813 
C568     C      0.064040000000     0.375880000000     0.078280000000    -0.0956063  
C569     C      0.041340000000     0.247110000000     0.034640000000    -0.00945219 
C570     C      0.008060000000     0.178540000000     0.016000000000    -0.0983096  
C571     C      0.068600000000     0.270560000000     0.059470000000    -0.0347467  
C572     C      0.009540000000     0.145870000000     0.008240000000     0.070981   
C573     C      0.079560000000     0.182240000000     0.008830000000     0.105286   
C574     C      0.065170000000     0.300090000000     0.073170000000    -0.0364151  
C575     C      0.030950000000     0.338630000000     0.075850000000     0.0500406  
C576     C      0.042890000000     0.213600000000     0.022010000000     0.0542463  
Co1      Co     0.009310000000     0.055380000000     0.053870000000     1.10376    
Co2      Co     0.007180000000     0.991400000000     0.983150000000     1.06821    
Co3      Co     0.081430000000     0.063240000000     0.018550000000     1.08025    
Co4      Co     0.994560000000     0.969150000000     0.060400000000     1.08361    
Co5      Co     0.123200000000     0.059510000000     0.519030000000     1.13787    
Co6      Co     0.046250000000     0.068690000000     0.563030000000     1.08045    
Co7      Co     0.030800000000     0.011230000000     0.506920000000     1.13758    
Co8      Co     0.111950000000     0.122730000000     0.554280000000     0.888204   
Co9      Co     0.031050000000     0.483600000000     0.032580000000     1.12187    
Co10     Co     0.010440000000     0.552390000000     0.099270000000     0.895199   
Co11     Co     0.958680000000     0.461580000000     0.079160000000     1.11501    
Co12     Co     0.040150000000     0.563110000000     0.048240000000     1.04305    
Co13     Co     0.076110000000     0.484220000000     0.548870000000     1.15339    
Co14     Co     0.072310000000     0.573090000000     0.578710000000     0.80325    
Co15     Co     0.006630000000     0.484310000000     0.587500000000     1.1709     
Co16     Co     0.090520000000     0.569580000000     0.541950000000     0.76817    
Co17     Co     0.477840000000     0.037120000000     0.047480000000     1.11781    
Co18     Co     0.532410000000     0.007110000000     0.993850000000     1.10569    
Co19     Co     0.525300000000     0.082590000000     0.012180000000     0.854786   
Co20     Co     0.525380000000     0.992540000000     0.071650000000     1.16492    
Co21     Co     0.490460000000     0.023830000000     0.547130000000     1.07335    
Co22     Co     0.564050000000     0.021190000000     0.487970000000     1.07327    
Co23     Co     0.565160000000     0.095020000000     0.514980000000     1.09008    
Co24     Co     0.559810000000     0.005990000000     0.566000000000     1.08057    
Co25     Co     0.511340000000     0.480060000000     0.016020000000     1.15968    
Co26     Co     0.523370000000     0.576620000000     0.056680000000     1.05336    
Co27     Co     0.455070000000     0.493070000000     0.058800000000     1.07995    
Co28     Co     0.549540000000     0.577010000000     0.998290000000     1.05096    
Co29     Co     0.581620000000     0.505320000000     0.515470000000     1.05909    
Co30     Co     0.576560000000     0.583830000000     0.569280000000     1.06088    
Co31     Co     0.506610000000     0.505370000000     0.539080000000     1.08337    
Co32     Co     0.596870000000     0.589420000000     0.493310000000     1.08691    
H1       H      0.545630000000     0.568990000000     0.904580000000     0.0237106  
H2       H      0.470660000000     0.490070000000     0.635560000000     0.0244097  
H3       H      0.538230000000     0.456970000000     0.815280000000     0.0380036  
H4       H      0.487250000000     0.526020000000     0.741480000000     0.0377639  
H5       H      0.459680000000     0.478290000000     0.693770000000     0.0537041  
H6       H      0.484820000000     0.528330000000     0.801130000000     0.0387356  
H7       H      0.579710000000     0.506040000000     0.712810000000     0.0575897  
H8       H      0.540920000000     0.560350000000     0.845670000000     0.0542632  
H9       H      0.487430000000     0.436800000000     0.861620000000     0.0539945  
H10      H      0.540770000000     0.454710000000     0.755410000000     0.0378081  
H11      H      0.491960000000     0.446280000000     0.920880000000     0.022993   
H12      H      0.594830000000     0.577920000000     0.136040000000     0.0298751  
H13      H      0.605430000000     0.500960000000     0.418080000000     0.0235589  
H14      H      0.587980000000     0.584930000000     0.245370000000     0.0390822  
H15      H      0.554800000000     0.462800000000     0.307370000000     0.0375971  
H16      H      0.607400000000     0.497680000000     0.358920000000     0.0533142  
H17      H      0.550370000000     0.462910000000     0.246880000000     0.037819   
H18      H      0.530800000000     0.544700000000     0.343750000000     0.0580728  
H19      H      0.614800000000     0.574780000000     0.193570000000     0.0541505  
H20      H      0.502160000000     0.471470000000     0.207710000000     0.0538861  
H21      H      0.592100000000     0.584640000000     0.305520000000     0.0380561  
H22      H      0.483030000000     0.475530000000     0.150570000000     0.0231537  
H23      H      0.527510000000     0.636470000000     0.461520000000     0.0272147  
H24      H      0.524100000000     0.898430000000     0.559810000000     0.0225591  
H25      H      0.467300000000     0.710310000000     0.543360000000     0.03825    
H26      H      0.518640000000     0.808030000000     0.452340000000     0.0374952  
H27      H      0.507720000000     0.832760000000     0.553940000000     0.0536621  
H28      H      0.528440000000     0.752420000000     0.452890000000     0.0375747  
H29      H      0.475670000000     0.837110000000     0.451540000000     0.0570559  
H30      H      0.498690000000     0.678020000000     0.453520000000     0.0523067  
H31      H      0.534450000000     0.715560000000     0.553780000000     0.0529335  
H32      H      0.457060000000     0.765750000000     0.542710000000     0.0370038  
H33      H      0.563260000000     0.674640000000     0.560840000000     0.0213961  
H34      H      0.598420000000     0.445910000000     0.587540000000     0.0276522  
H35      H      0.470890000000     0.109670000000     0.572770000000     0.0240556  
H36      H      0.571140000000     0.326250000000     0.632940000000     0.037363   
H37      H      0.485020000000     0.225880000000     0.551630000000     0.0366202  
H38      H      0.467370000000     0.166540000000     0.582310000000     0.0531009  
H39      H      0.484640000000     0.286480000000     0.551400000000     0.0365569  
H40      H      0.593060000000     0.231910000000     0.600380000000     0.0563108  
H41      H      0.593590000000     0.383700000000     0.598750000000     0.0522568  
H42      H      0.467510000000     0.327190000000     0.579880000000     0.0519982  
H43      H      0.571510000000     0.265310000000     0.633180000000     0.0369688  
H44      H      0.473590000000     0.390190000000     0.568090000000     0.0234547  
H45      H      0.485120000000     0.992140000000     0.910190000000     0.0219861  
H46      H      0.478670000000     0.033040000000     0.640710000000     0.0230803  
H47      H      0.555210000000     0.025670000000     0.815160000000     0.0372342  
H48      H      0.509560000000     0.100020000000     0.742360000000     0.0377995  
H49      H      0.477100000000     0.043070000000     0.698210000000     0.0541319  
H50      H      0.502970000000     0.098150000000     0.802190000000     0.0383194  
H51      H      0.601040000000     0.084400000000     0.710860000000     0.0580041  
H52      H      0.489700000000     0.996320000000     0.850690000000     0.0532411  
H53      H      0.555800000000     0.121100000000     0.855670000000     0.0538517  
H54      H      0.562510000000     0.028170000000     0.755700000000     0.03773    
H55      H      0.551610000000     0.116070000000     0.915340000000     0.0243265  
H56      H      0.498430000000     0.088160000000     0.136220000000     0.0293146  
H57      H      0.504350000000     0.009560000000     0.406030000000     0.028217   
H58      H      0.539030000000     0.137080000000     0.243690000000     0.0369653  
H59      H      0.554260000000     0.036640000000     0.308570000000     0.0370712  
H60      H      0.503440000000     0.016590000000     0.347170000000     0.054169   
H61      H      0.560050000000     0.040660000000     0.249600000000     0.0373731  
H62      H      0.567030000000     0.140670000000     0.355270000000     0.0578871  
H63      H      0.505310000000     0.102890000000     0.194220000000     0.0540536  
H64      H      0.600140000000     0.077880000000     0.206210000000     0.0527114  
H65      H      0.530920000000     0.131470000000     0.303190000000     0.036981   
H66      H      0.590850000000     0.061290000000     0.148710000000     0.0244167  
H67      H      0.486320000000     0.880300000000     0.060490000000     0.020912   
H68      H      0.525630000000     0.655810000000     0.954920000000     0.0185928  
H69      H      0.423130000000     0.751710000000     0.034040000000     0.0368658  
H70      H      0.475980000000     0.738870000000     0.931070000000     0.0362942  
H71      H      0.510650000000     0.707550000000     0.948720000000     0.0526596  
H72      H      0.476620000000     0.798820000000     0.940930000000     0.0367027  
H73      H      0.401880000000     0.635850000000     0.997180000000     0.0566952  
H74      H      0.471410000000     0.815760000000     0.048280000000     0.0524739  
H75      H      0.441180000000     0.832680000000     0.947340000000     0.0521057  
H76      H      0.424920000000     0.693170000000     0.025390000000     0.0372059  
H77      H      0.457520000000     0.898090000000     0.960330000000     0.0246929  
H78      H      0.538500000000     0.166050000000     0.073220000000     0.0290002  
H79      H      0.421590000000     0.379380000000     0.085960000000     0.0243388  
H80      H      0.515190000000     0.247070000000     0.134270000000     0.0371916  
H81      H      0.420870000000     0.270800000000     0.064670000000     0.0359645  
H82      H      0.412730000000     0.315680000000     0.096660000000     0.0527686  
H83      H      0.418280000000     0.208800000000     0.061720000000     0.037686   
H84      H      0.538510000000     0.364460000000     0.102370000000     0.0565153  
H85      H      0.533420000000     0.220460000000     0.089590000000     0.0525223  
H86      H      0.406950000000     0.147050000000     0.090640000000     0.0525488  
H87      H      0.517500000000     0.308980000000     0.137640000000     0.036444   
H88      H      0.413110000000     0.092540000000     0.074110000000     0.0309698  
H89      H      0.997440000000     0.371900000000     0.522760000000     0.0212561  
H90      H      0.682310000000     0.137690000000     0.548230000000     0.036027   
H91      H      0.839170000000     0.306300000000     0.456660000000     0.0376742  
H92      H      0.819420000000     0.196580000000     0.531470000000     0.0371467  
H93      H      0.750810000000     0.186520000000     0.545620000000     0.0552129  
H94      H      0.881380000000     0.258680000000     0.535860000000     0.0369822  
H95      H      0.746160000000     0.168590000000     0.441940000000     0.0577102  
H96      H      0.943090000000     0.309020000000     0.505340000000     0.0529229  
H97      H      0.864250000000     0.354370000000     0.504060000000     0.0528461  
H98      H      0.777330000000     0.244090000000     0.452170000000     0.0382324  
H99      H      0.918860000000     0.416550000000     0.521910000000     0.0227838  
H100     H      0.408690000000     0.909580000000     0.528100000000     0.0294222  
H101     H      0.154890000000     0.650960000000     0.637590000000     0.0270472  
H102     H      0.345930000000     0.775590000000     0.548220000000     0.0387458  
H103     H      0.290870000000     0.750470000000     0.658960000000     0.0371957  
H104     H      0.217960000000     0.711560000000     0.639650000000     0.053902   
H105     H      0.347690000000     0.814250000000     0.645770000000     0.0376321  
H106     H      0.273280000000     0.654100000000     0.600110000000     0.0579995  
H107     H      0.355470000000     0.844830000000     0.541720000000     0.0539238  
H108     H      0.421790000000     0.843840000000     0.630010000000     0.0519729  
H109     H      0.289680000000     0.712020000000     0.561390000000     0.0392279  
H110     H      0.475010000000     0.908380000000     0.615380000000     0.0222819  
H111     H      0.007190000000     0.611830000000     0.524980000000     0.0314074  
H112     H      0.700710000000     0.594500000000     0.459950000000     0.0233025  
H113     H      0.843450000000     0.533990000000     0.475780000000     0.0380659  
H114     H      0.841680000000     0.635000000000     0.540510000000     0.0384439  
H115     H      0.766160000000     0.603040000000     0.456140000000     0.0535161  
H116     H      0.899920000000     0.627370000000     0.544970000000     0.0392161  
H117     H      0.768350000000     0.574580000000     0.558990000000     0.0580944  
H118     H      0.956290000000     0.627520000000     0.506920000000     0.0551381  
H119     H      0.866940000000     0.511110000000     0.532840000000     0.053704   
H120     H      0.785700000000     0.542410000000     0.470610000000     0.0379089  
H121     H      0.918000000000     0.496690000000     0.551600000000     0.0219164  
H122     H      0.449990000000     0.560300000000     0.499370000000     0.0314572  
H123     H      0.198110000000     0.617430000000     0.508310000000     0.0343132  
H124     H      0.367170000000     0.591650000000     0.591320000000     0.037578   
H125     H      0.325590000000     0.629520000000     0.484850000000     0.037954   
H126     H      0.269520000000     0.644320000000     0.512110000000     0.0539574  
H127     H      0.391990000000     0.638170000000     0.492060000000     0.0381513  
H128     H      0.251710000000     0.531200000000     0.537480000000     0.0604548  
H129     H      0.403520000000     0.582670000000     0.494790000000     0.0533167  
H130     H      0.441260000000     0.629820000000     0.592230000000     0.0507419  
H131     H      0.301500000000     0.583680000000     0.584150000000     0.0395618  
H132     H      0.488540000000     0.606950000000     0.595980000000     0.0204657  
H133     H      0.000530000000     0.486450000000     0.683160000000     0.0233506  
H134     H      0.003880000000     0.483750000000     0.936550000000     0.02872    
H135     H      0.088510000000     0.608230000000     0.778130000000     0.0391829  
H136     H      0.969060000000     0.516820000000     0.838000000000     0.0380992  
H137     H      0.000850000000     0.493500000000     0.878380000000     0.0541985  
H138     H      0.966160000000     0.517750000000     0.778010000000     0.0377585  
H139     H      0.067660000000     0.616890000000     0.890180000000     0.0564549  
H140     H      0.999630000000     0.495570000000     0.741060000000     0.0539872  
H141     H      0.054290000000     0.619020000000     0.723730000000     0.0535331  
H142     H      0.091690000000     0.607010000000     0.838580000000     0.038153   
H143     H      0.054430000000     0.608820000000     0.664820000000     0.0299107  
H144     H      0.069850000000     0.542640000000     0.180630000000     0.0294187  
H145     H      0.058850000000     0.470440000000     0.454190000000     0.0234655  
H146     H      0.076400000000     0.499920000000     0.287980000000     0.0379618  
H147     H      0.964740000000     0.491160000000     0.345540000000     0.0375665  
H148     H      0.047740000000     0.461910000000     0.396050000000     0.0538011  
H149     H      0.959840000000     0.485410000000     0.285390000000     0.0382847  
H150     H      0.005770000000     0.542380000000     0.388990000000     0.0575923  
H151     H      0.074150000000     0.541190000000     0.240230000000     0.0536597  
H152     H      0.957540000000     0.440300000000     0.240580000000     0.0527024  
H153     H      0.081330000000     0.505760000000     0.347750000000     0.0384962  
H154     H      0.954190000000     0.442260000000     0.180460000000     0.0224918  
H155     H      0.639490000000     0.147910000000     0.052190000000     0.0286169  
H156     H      0.957900000000     0.367450000000     0.013400000000     0.0233447  
H157     H      0.741820000000     0.215080000000     0.951730000000     0.0388133  
H158     H      0.842940000000     0.261450000000     0.044090000000     0.0365461  
H159     H      0.906420000000     0.301000000000     0.003810000000     0.052491   
H160     H      0.781330000000     0.199360000000     0.049690000000     0.0378873  
H161     H      0.821780000000     0.338180000000     0.985290000000     0.0585415  
H162     H      0.708550000000     0.196760000000     0.047700000000     0.0543644  
H163     H      0.715630000000     0.135260000000     0.966900000000     0.0535604  
H164     H      0.802970000000     0.277770000000     0.946470000000     0.0377636  
H165     H      0.646580000000     0.085820000000     0.972630000000     0.0225815  
H166     H      0.376660000000     0.967420000000     0.090480000000     0.0320506  
H167     H      0.128880000000     0.674590000000     0.030170000000     0.0340157  
H168     H      0.273310000000     0.857920000000     0.066870000000     0.0383114  
H169     H      0.244630000000     0.744810000000     0.140360000000     0.0376089  
H170     H      0.189210000000     0.734180000000     0.040590000000     0.0548505  
H171     H      0.307680000000     0.805280000000     0.147850000000     0.0370665  
H172     H      0.172690000000     0.717370000000     0.144590000000     0.0579793  
H173     H      0.313030000000     0.911730000000     0.101460000000     0.0546529  
H174     H      0.367860000000     0.841840000000     0.118330000000     0.0531196  
H175     H      0.210210000000     0.798600000000     0.060560000000     0.0376073  
H176     H      0.431610000000     0.898890000000     0.108680000000     0.0210361  
H177     H      0.862500000000     0.470910000000     0.059790000000     0.0291937  
H178     H      0.659120000000     0.602300000000     0.043870000000     0.025412   
H179     H      0.759260000000     0.480450000000     0.105350000000     0.038254   
H180     H      0.780320000000     0.603570000000     0.052130000000     0.0369866  
H181     H      0.719300000000     0.605080000000     0.066740000000     0.0537013  
H182     H      0.837510000000     0.596420000000     0.069290000000     0.0375636  
H183     H      0.676750000000     0.489650000000     0.033510000000     0.058811   
H184     H      0.809200000000     0.484670000000     0.055840000000     0.0550924  
H185     H      0.869980000000     0.572360000000     0.129290000000     0.0530638  
H186     H      0.702490000000     0.487700000000     0.089300000000     0.0383644  
H187     H      0.923180000000     0.557030000000     0.133560000000     0.0228226  
H188     H      0.372070000000     0.505670000000     0.071480000000     0.0183605  
H189     H      0.142430000000     0.582140000000     0.109440000000     0.0332114  
H190     H      0.353320000000     0.629810000000     0.060120000000     0.0371165  
H191     H      0.240680000000     0.550860000000     0.131370000000     0.0383833  
H192     H      0.209770000000     0.599520000000     0.126190000000     0.0547108  
H193     H      0.301310000000     0.547830000000     0.140270000000     0.0381591  
H194     H      0.225470000000     0.570160000000     0.030580000000     0.0590485  
H195     H      0.321720000000     0.521080000000     0.082040000000     0.0548207  
H196     H      0.411920000000     0.633530000000     0.116380000000     0.0542879  
H197     H      0.292340000000     0.632180000000     0.050640000000     0.0384205  
H198     H      0.462230000000     0.616360000000     0.106740000000     0.0320527  
H199     H      0.931020000000     0.981710000000     0.593350000000     0.029699   
H200     H      0.693150000000     0.689830000000     0.512700000000     0.02361    
H201     H      0.819410000000     0.869020000000     0.570870000000     0.0378003  
H202     H      0.818980000000     0.751020000000     0.615720000000     0.0374653  
H203     H      0.748410000000     0.751050000000     0.528490000000     0.0537886  
H204     H      0.878400000000     0.814600000000     0.623230000000     0.0377191  
H205     H      0.747250000000     0.708100000000     0.627360000000     0.0569907  
H206     H      0.870700000000     0.921820000000     0.607650000000     0.0533525  
H207     H      0.923480000000     0.855910000000     0.580500000000     0.0533647  
H208     H      0.759910000000     0.805680000000     0.563990000000     0.0375851  
H209     H      0.982260000000     0.915350000000     0.566510000000     0.0274442  
H210     H      0.490270000000     0.397460000000     0.473740000000     0.0226255  
H211     H      0.151020000000     0.210480000000     0.492880000000     0.0272002  
H212     H      0.369570000000     0.298200000000     0.483380000000     0.036076   
H213     H      0.259690000000     0.305670000000     0.423070000000     0.0378868  
H214     H      0.211960000000     0.268220000000     0.477800000000     0.0549733  
H215     H      0.326790000000     0.360930000000     0.420330000000     0.0367751  
H216     H      0.249240000000     0.197540000000     0.433910000000     0.0581544  
H217     H      0.427610000000     0.340180000000     0.458630000000     0.0509136  
H218     H      0.372920000000     0.410850000000     0.451190000000     0.0517093  
H219     H      0.303090000000     0.242530000000     0.483780000000     0.038152   
H220     H      0.435750000000     0.466930000000     0.463840000000     0.0272122  
H221     H      0.992500000000     0.124230000000     0.516670000000     0.0311231  
H222     H      0.658730000000     0.035700000000     0.477080000000     0.022497   
H223     H      0.878450000000     0.109730000000     0.545360000000     0.0378252  
H224     H      0.762000000000     0.024910000000     0.473480000000     0.036616   
H225     H      0.724920000000     0.053840000000     0.467860000000     0.0540952  
H226     H      0.824500000000     0.030450000000     0.464360000000     0.0367736  
H227     H      0.753800000000     0.068410000000     0.571950000000     0.0568476  
H228     H      0.933610000000     0.129250000000     0.514520000000     0.0538631  
H229     H      0.864690000000     0.008770000000     0.487220000000     0.0526061  
H230     H      0.816410000000     0.107490000000     0.552200000000     0.0356406  
H231     H      0.924300000000     0.005700000000     0.487860000000     0.0225067  
H232     H      0.406030000000     0.007890000000     0.482170000000     0.0253715  
H233     H      0.190030000000     0.052400000000     0.572060000000     0.0260914  
H234     H      0.359720000000     0.060490000000     0.539610000000     0.0375027  
H235     H      0.311380000000     0.139390000000     0.477380000000     0.0362825  
H236     H      0.245040000000     0.050230000000     0.553470000000     0.0516885  
H237     H      0.359680000000     0.127330000000     0.452990000000     0.0374344  
H238     H      0.299480000000     0.170410000000     0.523580000000     0.0559187  
H239     H      0.352420000000     0.021330000000     0.482340000000     0.053625   
H240     H      0.436410000000     0.143900000000     0.476270000000     0.0530702  
H241     H      0.313410000000     0.073680000000     0.564470000000     0.0365316  
H242     H      0.489440000000     0.129580000000     0.476100000000     0.0234211  
H243     H      0.038150000000     0.914130000000     0.490930000000     0.0209102  
H244     H      0.103300000000     0.686940000000     0.590780000000     0.0322585  
H245     H      0.086990000000     0.834350000000     0.470710000000     0.0368981  
H246     H      0.152550000000     0.814880000000     0.572160000000     0.0368737  
H247     H      0.108410000000     0.748330000000     0.581540000000     0.0534792  
H248     H      0.143090000000     0.870110000000     0.567790000000     0.0371423  
H249     H      0.137940000000     0.750400000000     0.481440000000     0.0569507  
H250     H      0.050140000000     0.860160000000     0.490380000000     0.0525891  
H251     H      0.161750000000     0.929550000000     0.543680000000     0.0520907  
H252     H      0.093640000000     0.776830000000     0.476460000000     0.0377709  
H253     H      0.147560000000     0.981180000000     0.545670000000     0.0202166  
H254     H      0.110380000000     0.428300000000     0.617110000000     0.0264649  
H255     H      0.000150000000     0.108100000000     0.634360000000     0.0316998  
H256     H      0.973180000000     0.282280000000     0.635770000000     0.0372273  
H257     H      0.079540000000     0.253650000000     0.668420000000     0.0396273  
H258     H      0.991840000000     0.155100000000     0.663330000000     0.0554185  
H259     H      0.088850000000     0.317190000000     0.680510000000     0.0378764  
H260     H      0.050340000000     0.240060000000     0.587390000000     0.0593002  
H261     H      0.101240000000     0.367000000000     0.638540000000     0.0534365  
H262     H      0.986210000000     0.336710000000     0.669760000000     0.0527347  
H263     H      0.964060000000     0.218910000000     0.624380000000     0.0373988  
H264     H      0.996150000000     0.398280000000     0.647590000000     0.0208525  
H265     H      0.114070000000     0.108790000000     0.926200000000     0.0226627  
H266     H      0.043080000000     0.017860000000     0.649960000000     0.0337184  
H267     H      0.106440000000     0.138160000000     0.809890000000     0.0384697  
H268     H      0.058570000000     0.009360000000     0.761500000000     0.0368794  
H269     H      0.038880000000     0.016810000000     0.708280000000     0.0548946  
H270     H      0.044020000000     0.013220000000     0.817950000000     0.037779   
H271     H      0.153750000000     0.119400000000     0.716020000000     0.0577004  
H272     H      0.126550000000     0.115570000000     0.867860000000     0.0536699  
H273     H      0.002210000000     0.040250000000     0.845830000000     0.053699   
H274     H      0.119350000000     0.134660000000     0.752620000000     0.0379664  
H275     H      0.990450000000     0.034630000000     0.904340000000     0.0230619  
H276     H      0.044160000000     0.082100000000     0.142470000000     0.0209831  
H277     H      0.130360000000     0.040130000000     0.421270000000     0.0236149  
H278     H      0.055980000000     0.088920000000     0.249350000000     0.0365199  
H279     H      0.109110000000     0.015010000000     0.312520000000     0.0366926  
H280     H      0.136070000000     0.045540000000     0.362380000000     0.053058   
H281     H      0.104750000000     0.012740000000     0.253030000000     0.0369683  
H282     H      0.035410000000     0.061100000000     0.351460000000     0.0574527  
H283     H      0.069950000000     0.097660000000     0.198120000000     0.0522776  
H284     H      0.067310000000     0.987910000000     0.208070000000     0.0530527  
H285     H      0.066650000000     0.096020000000     0.307530000000     0.03715    
H286     H      0.046800000000     0.976480000000     0.150600000000     0.0246282  
H287     H      0.593120000000     0.694470000000     0.097110000000     0.0290868  
H288     H      0.893580000000     0.877160000000     0.034890000000     0.0237015  
H289     H      0.716460000000     0.799630000000     0.090470000000     0.0373707  
H290     H      0.746720000000     0.861030000000     0.979040000000     0.036734   
H291     H      0.825410000000     0.842390000000     0.045830000000     0.0546533  
H292     H      0.680280000000     0.807600000000     0.989170000000     0.0366387  
H293     H      0.808060000000     0.927440000000     0.990800000000     0.0565786  
H294     H      0.643530000000     0.763280000000     0.092030000000     0.0526116  
H295     H      0.667660000000     0.741660000000     0.995850000000     0.0530524  
H296     H      0.782140000000     0.853970000000     0.080630000000     0.0369713  
H297     H      0.618330000000     0.674740000000     0.001600000000     0.0179917  
H298     H      0.099480000000     0.160870000000     0.090830000000     0.022547   
H299     H      0.416390000000     0.375280000000     0.002010000000     0.0227255  
H300     H      0.225840000000     0.273290000000     0.096920000000     0.0362234  
H301     H      0.292590000000     0.262590000000     0.002000000000     0.0365614  
H302     H      0.359800000000     0.314200000000     0.016000000000     0.0523365  
H303     H      0.240910000000     0.203930000000     0.027500000000     0.0371622  
H304     H      0.289930000000     0.368930000000     0.016950000000     0.0575996  
H305     H      0.159030000000     0.222800000000     0.083760000000     0.0518966  
H306     H      0.224400000000     0.163480000000     0.077190000000     0.052203   
H307     H      0.277470000000     0.332130000000     0.071070000000     0.036721   
H308     H      0.163790000000     0.101870000000     0.083320000000     0.0245883  
H309     H      0.631200000000     0.018150000000     0.096050000000     0.023209   
H310     H      0.906030000000     0.034340000000     0.036160000000     0.027213   
H311     H      0.749380000000     0.029420000000     0.094760000000     0.037044   
H312     H      0.750030000000     0.915290000000     0.052980000000     0.0413119  
H313     H      0.841730000000     0.024140000000     0.041780000000     0.0549549  
H314     H      0.688950000000     0.917900000000     0.047640000000     0.0375982  
H315     H      0.812500000000     0.924680000000     0.104400000000     0.057665   
H316     H      0.683590000000     0.004460000000     0.110060000000     0.0520545  
H317     H      0.667060000000     0.956170000000     0.013800000000     0.0523754  
H318     H      0.809350000000     0.025920000000     0.100720000000     0.0376625  
H319     H      0.613500000000     0.969070000000     0.000970000000     0.0207507  
H320     H      0.425780000000     0.088050000000     0.962880000000     0.0247459  
H321     H      0.102830000000     0.998480000000     0.931990000000     0.0234542  
H322     H      0.272090000000     0.952410000000     0.984680000000     0.0381082  
H323     H      0.233590000000     0.038000000000     0.920990000000     0.0371744  
H324     H      0.158050000000     0.993080000000     0.915280000000     0.052868   
H325     H      0.299080000000     0.046810000000     0.914740000000     0.0367091  
H326     H      0.190470000000     0.984460000000     0.016970000000     0.0576707  
H327     H      0.359200000000     0.072840000000     0.945900000000     0.052443   
H328     H      0.320210000000     0.950710000000     0.957080000000     0.053598   
H329     H      0.206740000000     0.942510000000     0.989150000000     0.0375859  
H330     H      0.386250000000     0.967350000000     0.976360000000     0.0335166  
H331     H      0.983920000000     0.601520000000     0.979790000000     0.0310118  
H332     H      0.015500000000     0.901750000000     0.965830000000     0.0219808  
H333     H      0.019780000000     0.723370000000     0.977620000000     0.0390945  
H334     H      0.936440000000     0.763380000000     0.030790000000     0.0383078  
H335     H      0.001890000000     0.836540000000     0.958300000000     0.0549846  
H336     H      0.914340000000     0.694410000000     0.027690000000     0.0360519  
H337     H      0.012120000000     0.821390000000     0.062800000000     0.0590174  
H338     H      0.976910000000     0.656890000000     0.961790000000     0.053847   
H339     H      0.937180000000     0.658050000000     0.058010000000     0.0523565  
H340     H      0.040330000000     0.792130000000     0.979220000000     0.0383379  
H341     H      0.944230000000     0.603470000000     0.074540000000     0.024614   
H342     H      0.085260000000     0.436030000000     0.083850000000     0.0249067  
H343     H      0.981390000000     0.119200000000     0.005240000000     0.0262125  
H344     H      0.086380000000     0.317510000000     0.092410000000     0.0368478  
H345     H      0.989880000000     0.237350000000     0.004070000000     0.0368853  
H346     H      0.979490000000     0.175500000000     0.019050000000     0.0522132  
H347     H      0.983770000000     0.288450000000     0.028120000000     0.0363863  
H348     H      0.106070000000     0.243340000000     0.019460000000     0.0570586  
H349     H      0.093090000000     0.381220000000     0.073270000000     0.0529414  
H350     H      0.968010000000     0.304650000000     0.082340000000     0.0515351  
H351     H      0.092010000000     0.265480000000     0.068940000000     0.0357071  
H352     H      0.961160000000     0.360170000000     0.092930000000     0.0205173  
N1       N      0.532030000000     0.506850000000     0.640050000000    -0.20589    
N2       N      0.519150000000     0.508280000000     0.917130000000    -0.216878   
N3       N      0.568080000000     0.525980000000     0.415700000000    -0.206933   
N4       N      0.537060000000     0.527710000000     0.139390000000    -0.201689   
N5       N      0.511980000000     0.908090000000     0.508870000000    -0.204626   
N6       N      0.547640000000     0.652610000000     0.511680000000    -0.205204   
N7       N      0.534150000000     0.137150000000     0.579410000000    -0.205865   
N8       N      0.536550000000     0.422550000000     0.575900000000    -0.203959   
N9       N      0.540540000000     0.051190000000     0.641710000000    -0.205613   
N10      N      0.518590000000     0.053770000000     0.917020000000    -0.207712   
N11      N      0.537620000000     0.070800000000     0.415700000000    -0.207561   
N12      N      0.542540000000     0.071490000000     0.138870000000    -0.213795   
N13      N      0.474730000000     0.617760000000     0.982050000000    -0.207888   
N14      N      0.474150000000     0.894440000000     0.011130000000    -0.205198   
N15      N      0.485050000000     0.409250000000     0.086530000000    -0.212328   
N16      N      0.476110000000     0.125450000000     0.071880000000    -0.187959   
N17      N      0.673170000000     0.124670000000     0.496600000000    -0.20497    
N18      N      0.961970000000     0.398560000000     0.524310000000    -0.213561   
N19      N      0.177330000000     0.618600000000     0.616220000000    -0.203777   
N20      N      0.445620000000     0.913940000000     0.570860000000    -0.203637   
N21      N      0.695430000000     0.577410000000     0.511100000000    -0.205893   
N22      N      0.966350000000     0.553380000000     0.540190000000    -0.207403   
N23      N      0.183920000000     0.559490000000     0.522540000000    -0.203415   
N24      N      0.472030000000     0.581140000000     0.548370000000    -0.204881   
N25      N      0.037670000000     0.544380000000     0.948770000000    -0.20325    
N26      N      0.027790000000     0.547000000000     0.669630000000    -0.202421   
N27      N      0.040600000000     0.512890000000     0.456760000000    -0.198227   
N28      N      0.011340000000     0.493090000000     0.176100000000    -0.201152   
N29      N      0.919500000000     0.391270000000     0.007270000000    -0.213472   
N30      N      0.637730000000     0.113880000000     0.012170000000    -0.200247   
N31      N      0.115080000000     0.659800000000     0.081150000000    -0.194087   
N32      N      0.408340000000     0.936650000000     0.097350000000    -0.214469   
N33      N      0.632160000000     0.543860000000     0.026910000000    -0.215639   
N34      N      0.896980000000     0.513220000000     0.096760000000    -0.2062     
N35      N      0.143910000000     0.564080000000     0.060940000000    -0.209564   
N36      N      0.420690000000     0.560320000000     0.087660000000    -0.204305   
N37      N      0.685680000000     0.662410000000     0.560810000000    -0.205401   
N38      N      0.960370000000     0.952770000000     0.577860000000    -0.206548   
N39      N      0.165660000000     0.170190000000     0.474210000000    -0.203785   
N40      N      0.467230000000     0.435990000000     0.471270000000    -0.204369   
N41      N      0.666470000000     0.041730000000     0.529840000000    -0.208309   
N42      N      0.962530000000     0.064320000000     0.503430000000    -0.208382   
N43      N      0.210180000000     0.111560000000     0.556440000000    -0.212642   
N44      N      0.451520000000     0.067920000000     0.481820000000    -0.206051   
N45      N      0.115040000000     0.680190000000     0.541170000000    -0.186881   
N46      N      0.091630000000     0.951270000000     0.518690000000    -0.21199    
N47      N      0.031690000000     0.147170000000     0.594710000000    -0.195175   
N48      N      0.053000000000     0.416680000000     0.628990000000    -0.206814   
N49      N      0.098850000000     0.071260000000     0.647940000000    -0.205419   
N50      N      0.051610000000     0.069940000000     0.919490000000    -0.206397   
N51      N      0.081170000000     0.049540000000     0.421090000000    -0.209529   
N52      N      0.042780000000     0.027790000000     0.142850000000    -0.207624   
N53      N      0.892700000000     0.924590000000     0.007880000000    -0.205858   
N54      N      0.602160000000     0.679560000000     0.049920000000    -0.19943    
N55      N      0.387690000000     0.408760000000     0.004720000000    -0.209056   
N56      N      0.127050000000     0.127070000000     0.084980000000    -0.206994   
N57      N      0.898670000000     0.985740000000     0.067130000000    -0.207235   
N58      N      0.618590000000     0.994690000000     0.047460000000    -0.212913   
N59      N      0.115530000000     0.996180000000     0.983950000000    -0.20633    
N60      N      0.410070000000     0.028880000000     0.972490000000    -0.202733   
N61      N      0.019770000000     0.899480000000     0.018880000000    -0.207774   
N62      N      0.966740000000     0.600180000000     0.028990000000    -0.205006   
N63      N      0.044810000000     0.146550000000     0.007360000000    -0.206037   
N64      N      0.022370000000     0.402240000000     0.087460000000    -0.208134   
O1       O      0.011020000000     0.080660000000     0.013480000000    -0.43967    
O2       O      0.952830000000     0.974980000000     0.989930000000    -0.419105   
O3       O      0.075670000000     0.066740000000     0.971380000000    -0.445264   
O4       O      0.952850000000     0.977070000000     0.077110000000    -0.425519   
O5       O      0.012270000000     0.036640000000     0.962190000000    -0.43809    
O6       O      0.957330000000     0.021580000000     0.042500000000    -0.462268   
O7       O      0.952510000000     0.936690000000     0.029870000000    -0.448403   
O8       O      0.074340000000     0.109060000000     0.014900000000    -0.423502   
O9       O      0.008760000000     0.035180000000     0.098080000000    -0.450405   
O10      O      0.060010000000     0.001220000000     0.972190000000    -0.42541    
O11      O      0.094180000000     0.066460000000     0.064140000000    -0.439937   
O12      O      0.028700000000     0.952450000000     0.047100000000    -0.432835   
O13      O      0.002660000000     0.943010000000     0.997260000000    -0.446565   
O14      O      0.061310000000     0.094870000000     0.070620000000    -0.444347   
O15      O      0.031220000000     0.995530000000     0.094850000000    -0.445168   
O16      O      0.094020000000     0.024210000000     0.018280000000    -0.441681   
O17      O      0.023460000000     0.019630000000     0.029180000000    -0.53214    
O18      O      0.105530000000     0.043670000000     0.473100000000    -0.444791   
O19      O      0.025030000000     0.086640000000     0.591830000000    -0.415773   
O20      O      0.992650000000     0.027930000000     0.505640000000    -0.455134   
O21      O      0.115320000000     0.142870000000     0.510500000000    -0.406122   
O22      O      0.024160000000     0.085140000000     0.526150000000    -0.430277   
O23      O      0.143560000000     0.110330000000     0.498450000000    -0.44629    
O24      O      0.070400000000     0.134320000000     0.563310000000    -0.430338   
O25      O      0.047610000000     0.038250000000     0.467900000000    -0.477059   
O26      O      0.144150000000     0.074210000000     0.561790000000    -0.455088   
O27      O      0.996870000000     0.018870000000     0.567780000000    -0.40403    
O28      O      0.057740000000     0.982510000000     0.501940000000    -0.4531     
O29      O      0.113620000000     0.108230000000     0.600080000000    -0.432028   
O30      O      0.064740000000     0.050130000000     0.598480000000    -0.439087   
O31      O      0.107470000000     0.010610000000     0.536380000000    -0.471928   
O32      O      0.165970000000     0.133210000000     0.553620000000    -0.402196   
O33      O      0.012440000000     0.981110000000     0.545030000000    -0.469698   
O34      O      0.075670000000     0.059490000000     0.533510000000    -0.573088   
O35      O      0.983210000000     0.435360000000     0.023470000000    -0.456782   
O36      O      0.988670000000     0.577860000000     0.072980000000    -0.456237   
O37      O      0.928980000000     0.485920000000     0.075220000000    -0.464095   
O38      O      0.054800000000     0.561440000000     0.003790000000    -0.39921    
O39      O      0.957750000000     0.523110000000     0.116130000000    -0.41653    
O40      O      0.019340000000     0.500790000000     0.992190000000    -0.460529   
O41      O      0.998170000000     0.565620000000     0.025070000000    -0.427712   
O42      O      0.937100000000     0.445320000000     0.036320000000    -0.450417   
O43      O      0.084890000000     0.524280000000     0.033480000000    -0.456617   
O44      O      0.031290000000     0.529610000000     0.128960000000    -0.419701   
O45      O      0.982410000000     0.428790000000     0.084120000000    -0.447647   
O46      O      0.071410000000     0.615710000000     0.043230000000    -0.414522   
O47      O      0.063530000000     0.598810000000     0.095080000000    -0.4254     
O48      O      0.043680000000     0.464710000000     0.071810000000    -0.461362   
O49      O      0.085460000000     0.561090000000     0.070020000000    -0.418542   
O50      O      0.976380000000     0.473360000000     0.126120000000    -0.427763   
O51      O      0.006810000000     0.510490000000     0.060420000000    -0.555995   
O52      O      0.025980000000     0.437960000000     0.542850000000    -0.473665   
O53      O      0.091580000000     0.626430000000     0.575980000000    -0.368627   
O54      O      0.984860000000     0.515540000000     0.571420000000    -0.463027   
O55      O      0.052610000000     0.546320000000     0.505380000000    -0.360373   
O56      O      0.030890000000     0.569010000000     0.549110000000    -0.426501   
O57      O      0.066190000000     0.499130000000     0.504620000000    -0.4408     
O58      O      0.108000000000     0.621090000000     0.526030000000    -0.344307   
O59      O      0.984390000000     0.457150000000     0.547970000000    -0.479115   
O60      O      0.128930000000     0.523410000000     0.551740000000    -0.451894   
O61      O      0.041130000000     0.567940000000     0.615590000000    -0.372281   
O62      O      0.023040000000     0.449000000000     0.605750000000    -0.451957   
O63      O      0.138030000000     0.593180000000     0.570730000000    -0.40842    
O64      O      0.110120000000     0.579770000000     0.614880000000    -0.377168   
O65      O      0.082910000000     0.466080000000     0.591050000000    -0.446286   
O66      O      0.128470000000     0.565460000000     0.516460000000    -0.355668   
O67      O      0.022650000000     0.507840000000     0.628500000000    -0.466162   
O68      O      0.060060000000     0.518470000000     0.569410000000    -0.558696   
O69      O      0.445170000000     0.013190000000     0.010090000000    -0.431925   
O70      O      0.489210000000     0.955980000000     0.994580000000    -0.441479   
O71      O      0.538730000000     0.080220000000     0.968190000000    -0.414264   
O72      O      0.474040000000     0.965570000000     0.087880000000    -0.480576   
O73      O      0.500500000000     0.019030000000     0.965370000000    -0.456146   
O74      O      0.441210000000     0.993120000000     0.068480000000    -0.453398   
O75      O      0.506320000000     0.946670000000     0.045170000000    -0.452086   
O76      O      0.473680000000     0.071130000000     0.991760000000    -0.430627   
O77      O      0.505780000000     0.055100000000     0.090330000000    -0.438852   
O78      O      0.581330000000     0.058980000000     0.994040000000    -0.419757   
O79      O      0.513450000000     0.102950000000     0.050240000000    -0.429492   
O80      O      0.578140000000     0.016480000000     0.061190000000    -0.477055   
O81      O      0.566980000000     0.990090000000     0.014280000000    -0.460777   
O82      O      0.450030000000     0.061620000000     0.056790000000    -0.403245   
O83      O      0.543930000000     0.031590000000     0.101950000000    -0.48438    
O84      O      0.576720000000     0.098220000000     0.028200000000    -0.411666   
O85      O      0.513050000000     0.022660000000     0.033320000000    -0.572313   
O86      O      0.472720000000     0.027570000000     0.503670000000    -0.435298   
O87      O      0.522710000000     0.969110000000     0.492860000000    -0.427225   
O88      O      0.565640000000     0.092030000000     0.467630000000    -0.440633   
O89      O      0.507230000000     0.967280000000     0.580620000000    -0.433302   
O90      O      0.529160000000     0.030500000000     0.460500000000    -0.442441   
O91      O      0.470370000000     0.970410000000     0.540020000000    -0.437584   
O92      O      0.550110000000     0.962820000000     0.539380000000    -0.437707   
O93      O      0.514450000000     0.089850000000     0.502330000000    -0.443438   
O94      O      0.504380000000     0.022700000000     0.593930000000    -0.438003   
O95      O      0.612250000000     0.072670000000     0.480070000000    -0.420996   
O96      O      0.565730000000     0.107490000000     0.559460000000    -0.434576   
O97      O      0.614170000000     0.037730000000     0.556460000000    -0.432472   
O98      O      0.602760000000     0.010990000000     0.509080000000    -0.451998   
O99      O      0.502330000000     0.075420000000     0.558810000000    -0.439672   
O100     O      0.567300000000     0.043020000000     0.596190000000    -0.440656   
O101     O      0.616550000000     0.105100000000     0.523200000000    -0.443577   
O102     O      0.544860000000     0.036440000000     0.529120000000    -0.535132   
O103     O      0.455240000000     0.443190000000     0.010590000000    -0.450626   
O104     O      0.494870000000     0.594650000000     0.026520000000    -0.41768    
O105     O      0.439760000000     0.529620000000     0.054180000000    -0.462924   
O106     O      0.539670000000     0.547440000000     0.961600000000    -0.482858   
O107     O      0.483810000000     0.570470000000     0.087260000000    -0.394158   
O108     O      0.507170000000     0.485600000000     0.970270000000    -0.487642   
O109     O      0.511800000000     0.588870000000     0.978660000000    -0.443823   
O110     O      0.422830000000     0.471660000000     0.020960000000    -0.444667   
O111     O      0.565470000000     0.508580000000     0.018060000000    -0.49302    
O112     O      0.547050000000     0.558430000000     0.088690000000    -0.436608   
O113     O      0.457690000000     0.446600000000     0.069710000000    -0.453079   
O114     O      0.568340000000     0.618850000000     0.028240000000    -0.5245     
O115     O      0.551500000000     0.626260000000     0.075700000000    -0.393347   
O116     O      0.517900000000     0.468730000000     0.060720000000    -0.466374   
O117     O      0.593070000000     0.571110000000     0.014820000000    -0.46048    
O118     O      0.487080000000     0.511490000000     0.099930000000    -0.440701   
O119     O      0.504400000000     0.527410000000     0.029690000000    -0.532707   
O120     O      0.529380000000     0.463810000000     0.497200000000    -0.423738   
O121     O      0.580310000000     0.628190000000     0.543990000000    -0.439423   
O122     O      0.494340000000     0.543730000000     0.528880000000    -0.453614   
O123     O      0.563600000000     0.555050000000     0.461000000000    -0.446508   
O124     O      0.522250000000     0.574060000000     0.574210000000    -0.427298   
O125     O      0.589820000000     0.518960000000     0.468420000000    -0.43405    
O126     O      0.559920000000     0.606140000000     0.494370000000    -0.438553   
O127     O      0.498190000000     0.495420000000     0.494200000000    -0.44358    
O128     O      0.633320000000     0.540450000000     0.529770000000    -0.43983    
O129     O      0.571890000000     0.544190000000     0.598690000000    -0.435773   
O130     O      0.511300000000     0.459520000000     0.552270000000    -0.433201   
O131     O      0.635800000000     0.629790000000     0.521670000000    -0.44569    
O132     O      0.631200000000     0.601420000000     0.569140000000    -0.430662   
O133     O      0.574480000000     0.485520000000     0.558920000000    -0.437072   
O134     O      0.641160000000     0.579970000000     0.488670000000    -0.430465   
O135     O      0.508970000000     0.509960000000     0.587020000000    -0.437004   
O136     O      0.565790000000     0.546130000000     0.529580000000    -0.524431   
S1       S      0.603260000000     0.517300000000     0.649880000000    -0.000719683
S2       S      0.514320000000     0.546580000000     0.406940000000    -0.0043559  
S3       S      0.490430000000     0.911300000000     0.446790000000    -0.0179878  
S4       S      0.609620000000     0.173970000000     0.596560000000    -0.0115969  
S5       S      0.617790000000     0.082380000000     0.647760000000    -0.00259341 
S6       S      0.568890000000     0.146110000000     0.421560000000    -0.0255196  
S7       S      0.406570000000     0.569970000000     0.005260000000    -0.00113427 
S8       S      0.561680000000     0.440880000000     0.096240000000    -0.0135614  
S9       S      0.668920000000     0.112530000000     0.433310000000    -0.0254483  
S10      S      0.209730000000     0.579640000000     0.600630000000    -0.0101565  
S11      S      0.697770000000     0.564420000000     0.574820000000     0.0048803  
S12      S      0.171590000000     0.488960000000     0.531170000000    -0.0437189  
S13      S      0.078770000000     0.619920000000     0.956740000000     0.00188877 
S14      S      0.010840000000     0.558870000000     0.453820000000    -0.00233591 
S15      S      0.870550000000     0.416290000000     0.991520000000    -0.0145217  
S16      S      0.102710000000     0.650250000000     0.144680000000    -0.0168002  
S17      S      0.609300000000     0.476390000000     0.000900000000    -0.0307908  
S18      S      0.154320000000     0.550980000000     0.000910000000    -0.0178907  
S19      S      0.685710000000     0.634530000000     0.620770000000    -0.0141201  
S20      S      0.183020000000     0.127120000000     0.440400000000    -0.0250711  
S21      S      0.683250000000     0.053150000000     0.593120000000    -0.0213444  
S22      S      0.244130000000     0.186230000000     0.542550000000    -0.0160761  
S23      S      0.135480000000     0.681350000000     0.480710000000    -0.0018841  
S24      S      0.061230000000     0.196580000000     0.545060000000    -0.010352   
S25      S      0.171500000000     0.129510000000     0.651390000000    -0.0135061  
S26      S      0.025420000000     0.067870000000     0.414670000000    -0.00961137 
S27      S      0.883370000000     0.975600000000     0.971490000000    -0.00400137 
S28      S      0.344850000000     0.441930000000     0.996770000000    -0.0143167  
S29      S      0.882180000000     0.925080000000     0.105450000000    -0.0266849  
S30      S      0.129990000000     0.983610000000     0.045740000000     0.00652722 
S31      S      0.030620000000     0.892860000000     0.082780000000    -0.0221419  
S32      S      0.121200000000     0.187820000000     0.000640000000    -0.0231513  


