data_structure

_audit_creation_method RASPA-1.0
_audit_creation_date 2023-5-19
_audit_author_name 'Poobodin Mano'

_cell_length_a    29.623
_cell_length_b    29.5279
_cell_length_c    29.7923
_cell_angle_alpha 90
_cell_angle_beta  90
_cell_angle_gamma 90
_cell_volume      26059.5

_symmetry_cell_setting          triclinic
_symmetry_space_group_name_Hall 'P 1'
_symmetry_space_group_name_H-M  'P 1'
_symmetry_Int_Tables_number     1

_symmetry_equiv_pos_as_xyz 'x,y,z'

loop_
_atom_site_label
_atom_site_type_symbol
_atom_site_fract_x
_atom_site_fract_y
_atom_site_fract_z
_atom_site_charge
C1       C      0.422540000000     0.423310000000     0.057990000000     0.394203   
C2       C      0.088590000000     0.089630000000     0.058000000000     0.394218   
C3       C      0.089350000000     0.422540000000     0.056800000000     0.395517   
C4       C      0.429970000000     0.082230000000     0.068220000000     0.396576   
C5       C      0.430680000000     0.081510000000     0.436750000000     0.385656   
C6       C      0.079610000000     0.432270000000     0.435080000000     0.388982   
C7       C      0.424570000000     0.425740000000     0.444870000000     0.390633   
C8       C      0.086200000000     0.087620000000     0.444880000000     0.39068    
C9       C      0.337870000000     0.340390000000     0.196670000000     0.394283   
C10      C      0.171820000000     0.174070000000     0.196660000000     0.394246   
C11      C      0.330440000000     0.181470000000     0.186440000000     0.396579   
C12      C      0.171060000000     0.341170000000     0.197860000000     0.395502   
C13      C      0.180790000000     0.331440000000     0.319590000000     0.388892   
C14      C      0.329730000000     0.182190000000     0.317910000000     0.385597   
C15      C      0.335830000000     0.337960000000     0.309790000000     0.390718   
C16      C      0.174210000000     0.176080000000     0.309770000000     0.390617   
C17      C      0.160860000000     0.102970000000     0.153490000000    -0.0124006  
C18      C      0.101550000000     0.163670000000     0.152370000000    -0.0125837  
C19      C      0.158860000000     0.100030000000     0.102280000000    -0.0125564  
C20      C      0.099550000000     0.160730000000     0.101160000000    -0.0123823  
C21      C      0.102780000000     0.164080000000     0.351430000000    -0.0127268  
C22      C      0.163700000000     0.104890000000     0.352600000000    -0.0126585  
C23      C      0.096710000000     0.158810000000     0.402060000000    -0.012698   
C24      C      0.157630000000     0.099620000000     0.403220000000    -0.0127474  
C25      C      0.100910000000     0.351320000000     0.153180000000    -0.0126341  
C26      C      0.160860000000     0.411320000000     0.152840000000    -0.0126772  
C27      C      0.099540000000     0.352390000000     0.101820000000    -0.0126211  
C28      C      0.159500000000     0.412380000000     0.101490000000    -0.012581   
C29      C      0.368610000000     0.083520000000     0.124820000000    -0.0122843  
C30      C      0.428250000000     0.144000000000     0.124590000000    -0.0123265  
C31      C      0.332160000000     0.119700000000     0.130080000000    -0.0123133  
C32      C      0.391800000000     0.180180000000     0.129840000000    -0.0122196  
C33      C      0.406980000000     0.348400000000     0.352330000000    -0.012702   
C34      C      0.347900000000     0.409450000000     0.351710000000    -0.0127253  
C35      C      0.412500000000     0.354260000000     0.402950000000    -0.0126872  
C36      C      0.353420000000     0.415300000000     0.402330000000    -0.012713   
C37      C      0.428240000000     0.143920000000     0.380730000000    -0.0131749  
C38      C      0.368630000000     0.083540000000     0.380530000000    -0.0132047  
C39      C      0.391770000000     0.180160000000     0.374130000000    -0.0131413  
C40      C      0.332160000000     0.119780000000     0.373930000000    -0.013189   
C41      C      0.118790000000     0.333440000000     0.375780000000    -0.0126877  
C42      C      0.178320000000     0.393900000000     0.375470000000    -0.0126846  
C43      C      0.082090000000     0.369800000000     0.379190000000    -0.012653   
C44      C      0.141620000000     0.430260000000     0.378880000000    -0.0126971  
C45      C      0.351490000000     0.412420000000     0.100890000000    -0.0124156  
C46      C      0.412070000000     0.353020000000     0.102560000000    -0.0124951  
C47      C      0.348340000000     0.410690000000     0.152100000000    -0.0125499  
C48      C      0.408920000000     0.351280000000     0.153770000000    -0.0124313  
C49      C      0.422540000000     0.423310000000     0.557990000000     0.394255   
C50      C      0.088590000000     0.089630000000     0.558000000000     0.394234   
C51      C      0.089350000000     0.422540000000     0.556800000000     0.395514   
C52      C      0.429970000000     0.082230000000     0.568220000000     0.396624   
C53      C      0.430680000000     0.081510000000     0.936750000000     0.385612   
C54      C      0.079610000000     0.432270000000     0.935070000000     0.388943   
C55      C      0.424570000000     0.425740000000     0.944870000000     0.39059    
C56      C      0.086200000000     0.087620000000     0.944880000000     0.390635   
C57      C      0.337870000000     0.340390000000     0.696670000000     0.3943     
C58      C      0.171820000000     0.174070000000     0.696660000000     0.394233   
C59      C      0.330440000000     0.181470000000     0.686440000000     0.396597   
C60      C      0.171060000000     0.341170000000     0.697860000000     0.395491   
C61      C      0.180790000000     0.331440000000     0.819590000000     0.388912   
C62      C      0.329730000000     0.182190000000     0.817910000000     0.385644   
C63      C      0.335830000000     0.337960000000     0.809790000000     0.390709   
C64      C      0.174210000000     0.176080000000     0.809770000000     0.390665   
C65      C      0.160860000000     0.102970000000     0.653490000000    -0.0123933  
C66      C      0.101550000000     0.163670000000     0.652370000000    -0.0125812  
C67      C      0.158860000000     0.100030000000     0.602280000000    -0.0125623  
C68      C      0.099550000000     0.160730000000     0.601160000000    -0.0123907  
C69      C      0.102780000000     0.164080000000     0.851430000000    -0.0127197  
C70      C      0.163700000000     0.104890000000     0.852600000000    -0.0126502  
C71      C      0.096710000000     0.158810000000     0.902050000000    -0.0127005  
C72      C      0.157630000000     0.099620000000     0.903220000000    -0.0127615  
C73      C      0.100910000000     0.351320000000     0.653170000000    -0.0126244  
C74      C      0.160860000000     0.411320000000     0.652840000000    -0.0126725  
C75      C      0.099540000000     0.352390000000     0.601820000000    -0.0126142  
C76      C      0.159500000000     0.412380000000     0.601480000000    -0.0125922  
C77      C      0.368610000000     0.083520000000     0.624820000000    -0.012275   
C78      C      0.428250000000     0.144000000000     0.624590000000    -0.0123174  
C79      C      0.332160000000     0.119700000000     0.630080000000    -0.0123198  
C80      C      0.391800000000     0.180180000000     0.629840000000    -0.0122253  
C81      C      0.406980000000     0.348400000000     0.852330000000    -0.0127     
C82      C      0.347900000000     0.409450000000     0.851710000000    -0.0127204  
C83      C      0.412500000000     0.354260000000     0.902950000000    -0.0126836  
C84      C      0.353420000000     0.415300000000     0.902330000000    -0.0127224  
C85      C      0.428240000000     0.143920000000     0.880730000000    -0.0131652  
C86      C      0.368630000000     0.083540000000     0.880530000000    -0.0131952  
C87      C      0.391770000000     0.180160000000     0.874130000000    -0.0131523  
C88      C      0.332160000000     0.119780000000     0.873930000000    -0.0131992  
C89      C      0.118790000000     0.333440000000     0.875780000000    -0.0126887  
C90      C      0.178320000000     0.393900000000     0.875470000000    -0.0126893  
C91      C      0.082090000000     0.369800000000     0.879190000000    -0.0126498  
C92      C      0.141620000000     0.430260000000     0.878880000000    -0.0126859  
C93      C      0.351490000000     0.412420000000     0.600890000000    -0.0124208  
C94      C      0.412070000000     0.353020000000     0.602560000000    -0.0124889  
C95      C      0.348340000000     0.410690000000     0.652100000000    -0.0125467  
C96      C      0.408920000000     0.351280000000     0.653770000000    -0.0124295  
C97      C      0.422540000000     0.923310000000     0.057990000000     0.394178   
C98      C      0.088590000000     0.589630000000     0.058000000000     0.394227   
C99      C      0.089350000000     0.922540000000     0.056800000000     0.395515   
C100     C      0.429970000000     0.582230000000     0.068220000000     0.396532   
C101     C      0.430680000000     0.581510000000     0.436750000000     0.38565    
C102     C      0.079610000000     0.932270000000     0.435080000000     0.388979   
C103     C      0.424570000000     0.925740000000     0.444870000000     0.390608   
C104     C      0.086200000000     0.587620000000     0.444880000000     0.390693   
C105     C      0.337870000000     0.840390000000     0.196670000000     0.394282   
C106     C      0.171820000000     0.674080000000     0.196660000000     0.394283   
C107     C      0.330440000000     0.681470000000     0.186440000000     0.396579   
C108     C      0.171060000000     0.841160000000     0.197860000000     0.395594   
C109     C      0.180790000000     0.831440000000     0.319590000000     0.389025   
C110     C      0.329730000000     0.682190000000     0.317910000000     0.385597   
C111     C      0.335830000000     0.837960000000     0.309790000000     0.390715   
C112     C      0.174210000000     0.676080000000     0.309770000000     0.390617   
C113     C      0.160860000000     0.602970000000     0.153490000000    -0.0123999  
C114     C      0.101550000000     0.663670000000     0.152370000000    -0.0125326  
C115     C      0.158860000000     0.600030000000     0.102280000000    -0.0125588  
C116     C      0.099550000000     0.660740000000     0.101160000000    -0.0124715  
C117     C      0.102780000000     0.664080000000     0.351430000000    -0.0127287  
C118     C      0.163700000000     0.604890000000     0.352600000000    -0.0126608  
C119     C      0.096710000000     0.658810000000     0.402060000000    -0.0126963  
C120     C      0.157630000000     0.599620000000     0.403220000000    -0.0127457  
C121     C      0.100910000000     0.851320000000     0.153180000000    -0.0126427  
C122     C      0.160860000000     0.911320000000     0.152840000000    -0.0126793  
C123     C      0.099540000000     0.852390000000     0.101820000000    -0.0126176  
C124     C      0.159500000000     0.912380000000     0.101490000000    -0.0125809  
C125     C      0.368610000000     0.583520000000     0.124820000000    -0.0123228  
C126     C      0.428250000000     0.644000000000     0.124590000000    -0.0122966  
C127     C      0.332160000000     0.619700000000     0.130080000000    -0.0122977  
C128     C      0.391800000000     0.680180000000     0.129840000000    -0.0122277  
C129     C      0.406980000000     0.848400000000     0.352330000000    -0.0126692  
C130     C      0.347900000000     0.909450000000     0.351710000000    -0.0127409  
C131     C      0.412500000000     0.854250000000     0.402950000000    -0.0127674  
C132     C      0.353420000000     0.915300000000     0.402330000000    -0.0127108  
C133     C      0.428240000000     0.643920000000     0.380730000000    -0.0131764  
C134     C      0.368630000000     0.583540000000     0.380530000000    -0.013211   
C135     C      0.391770000000     0.680160000000     0.374130000000    -0.0131407  
C136     C      0.332160000000     0.619780000000     0.373930000000    -0.0131857  
C137     C      0.118790000000     0.833440000000     0.375780000000    -0.0126793  
C138     C      0.178320000000     0.893900000000     0.375470000000    -0.0126736  
C139     C      0.082090000000     0.869800000000     0.379190000000    -0.0126563  
C140     C      0.141620000000     0.930260000000     0.378880000000    -0.0127045  
C141     C      0.351490000000     0.912420000000     0.100890000000    -0.0124162  
C142     C      0.412070000000     0.853010000000     0.102560000000    -0.012559   
C143     C      0.348340000000     0.910690000000     0.152100000000    -0.0125508  
C144     C      0.408920000000     0.851280000000     0.153770000000    -0.0124177  
C145     C      0.422540000000     0.923310000000     0.557990000000     0.39423    
C146     C      0.088590000000     0.589630000000     0.558000000000     0.394244   
C147     C      0.089350000000     0.922540000000     0.556800000000     0.395512   
C148     C      0.429970000000     0.582230000000     0.568220000000     0.39658    
C149     C      0.430680000000     0.581510000000     0.936750000000     0.385607   
C150     C      0.079610000000     0.932270000000     0.935070000000     0.38894    
C151     C      0.424570000000     0.925740000000     0.944870000000     0.390566   
C152     C      0.086200000000     0.587620000000     0.944880000000     0.390648   
C153     C      0.337870000000     0.840390000000     0.696670000000     0.394299   
C154     C      0.171820000000     0.674080000000     0.696660000000     0.39427    
C155     C      0.330440000000     0.681470000000     0.686440000000     0.396597   
C156     C      0.171060000000     0.841160000000     0.697860000000     0.395584   
C157     C      0.180790000000     0.831440000000     0.819590000000     0.389045   
C158     C      0.329730000000     0.682190000000     0.817910000000     0.385644   
C159     C      0.335830000000     0.837960000000     0.809790000000     0.390707   
C160     C      0.174210000000     0.676080000000     0.809770000000     0.390665   
C161     C      0.160860000000     0.602970000000     0.653490000000    -0.0123927  
C162     C      0.101550000000     0.663670000000     0.652370000000    -0.0125301  
C163     C      0.158860000000     0.600030000000     0.602280000000    -0.0125646  
C164     C      0.099550000000     0.660740000000     0.601160000000    -0.0124799  
C165     C      0.102780000000     0.664080000000     0.851430000000    -0.0127217  
C166     C      0.163700000000     0.604890000000     0.852600000000    -0.0126526  
C167     C      0.096710000000     0.658810000000     0.902050000000    -0.0126988  
C168     C      0.157630000000     0.599620000000     0.903220000000    -0.0127598  
C169     C      0.100910000000     0.851320000000     0.653170000000    -0.012633   
C170     C      0.160860000000     0.911320000000     0.652840000000    -0.0126746  
C171     C      0.099540000000     0.852390000000     0.601820000000    -0.0126108  
C172     C      0.159500000000     0.912380000000     0.601480000000    -0.0125921  
C173     C      0.368610000000     0.583520000000     0.624820000000    -0.0123136  
C174     C      0.428250000000     0.644000000000     0.624590000000    -0.0122876  
C175     C      0.332160000000     0.619700000000     0.630080000000    -0.0123041  
C176     C      0.391800000000     0.680180000000     0.629840000000    -0.0122335  
C177     C      0.406980000000     0.848400000000     0.852330000000    -0.0126673  
C178     C      0.347900000000     0.909450000000     0.851710000000    -0.012736   
C179     C      0.412500000000     0.854250000000     0.902950000000    -0.0127638  
C180     C      0.353420000000     0.915300000000     0.902330000000    -0.0127202  
C181     C      0.428240000000     0.643920000000     0.880730000000    -0.0131668  
C182     C      0.368630000000     0.583540000000     0.880530000000    -0.0132014  
C183     C      0.391770000000     0.680160000000     0.874130000000    -0.0131517  
C184     C      0.332160000000     0.619780000000     0.873930000000    -0.0131959  
C185     C      0.118790000000     0.833440000000     0.875780000000    -0.0126803  
C186     C      0.178320000000     0.893900000000     0.875470000000    -0.0126783  
C187     C      0.082090000000     0.869800000000     0.879190000000    -0.0126531  
C188     C      0.141620000000     0.930260000000     0.878880000000    -0.0126933  
C189     C      0.351490000000     0.912420000000     0.600890000000    -0.0124214  
C190     C      0.412070000000     0.853010000000     0.602560000000    -0.0125527  
C191     C      0.348340000000     0.910690000000     0.652100000000    -0.0125475  
C192     C      0.408920000000     0.851280000000     0.653770000000    -0.0124159  
C193     C      0.922540000000     0.423310000000     0.057990000000     0.394193   
C194     C      0.588590000000     0.089630000000     0.058000000000     0.394231   
C195     C      0.589350000000     0.422540000000     0.056800000000     0.395521   
C196     C      0.929970000000     0.082230000000     0.068220000000     0.396577   
C197     C      0.930680000000     0.081510000000     0.436750000000     0.385655   
C198     C      0.579610000000     0.432270000000     0.435080000000     0.388816   
C199     C      0.924570000000     0.425740000000     0.444870000000     0.390625   
C200     C      0.586200000000     0.087620000000     0.444880000000     0.390606   
C201     C      0.837870000000     0.340390000000     0.196670000000     0.394199   
C202     C      0.671820000000     0.174070000000     0.196660000000     0.394244   
C203     C      0.830440000000     0.181470000000     0.186440000000     0.396489   
C204     C      0.671060000000     0.341170000000     0.197860000000     0.395502   
C205     C      0.680790000000     0.331440000000     0.319590000000     0.388893   
C206     C      0.829730000000     0.182190000000     0.317910000000     0.385685   
C207     C      0.835830000000     0.337960000000     0.309790000000     0.390716   
C208     C      0.674210000000     0.176080000000     0.309770000000     0.390617   
C209     C      0.660860000000     0.102970000000     0.153490000000    -0.0124177  
C210     C      0.601550000000     0.163670000000     0.152370000000    -0.012603   
C211     C      0.658860000000     0.100030000000     0.102280000000    -0.0125486  
C212     C      0.599550000000     0.160730000000     0.101160000000    -0.0123741  
C213     C      0.602780000000     0.164080000000     0.351430000000    -0.0127517  
C214     C      0.663690000000     0.104890000000     0.352600000000    -0.0126205  
C215     C      0.596710000000     0.158810000000     0.402060000000    -0.0126931  
C216     C      0.657630000000     0.099620000000     0.403220000000    -0.0127651  
C217     C      0.600910000000     0.351320000000     0.153180000000    -0.012652   
C218     C      0.660860000000     0.411320000000     0.152840000000    -0.0126802  
C219     C      0.599550000000     0.352390000000     0.101820000000    -0.0125832  
C220     C      0.659500000000     0.412380000000     0.101490000000    -0.0125786  
C221     C      0.868610000000     0.083520000000     0.124820000000    -0.0122755  
C222     C      0.928250000000     0.144000000000     0.124590000000    -0.0123217  
C223     C      0.832160000000     0.119700000000     0.130080000000    -0.0123425  
C224     C      0.891800000000     0.180180000000     0.129840000000    -0.0122407  
C225     C      0.906980000000     0.348400000000     0.352330000000    -0.0127044  
C226     C      0.847900000000     0.409450000000     0.351710000000    -0.012736   
C227     C      0.912500000000     0.354260000000     0.402950000000    -0.0126862  
C228     C      0.853420000000     0.415300000000     0.402330000000    -0.0126852  
C229     C      0.928240000000     0.143920000000     0.380730000000    -0.0131826  
C230     C      0.868630000000     0.083540000000     0.380530000000    -0.0132072  
C231     C      0.891770000000     0.180160000000     0.374130000000    -0.0131342  
C232     C      0.832160000000     0.119780000000     0.373930000000    -0.0131848  
C233     C      0.618790000000     0.333440000000     0.375780000000    -0.0126738  
C234     C      0.678320000000     0.393900000000     0.375470000000    -0.0126915  
C235     C      0.582090000000     0.369800000000     0.379190000000    -0.0126828  
C236     C      0.641620000000     0.430260000000     0.378880000000    -0.0126712  
C237     C      0.851490000000     0.412420000000     0.100890000000    -0.0124125  
C238     C      0.912070000000     0.353020000000     0.102560000000    -0.0124935  
C239     C      0.848340000000     0.410690000000     0.152100000000    -0.0125558  
C240     C      0.908920000000     0.351280000000     0.153770000000    -0.0124378  
C241     C      0.922540000000     0.423310000000     0.557990000000     0.394245   
C242     C      0.588590000000     0.089630000000     0.558000000000     0.394248   
C243     C      0.589350000000     0.422540000000     0.556800000000     0.395518   
C244     C      0.929970000000     0.082230000000     0.568220000000     0.396624   
C245     C      0.930680000000     0.081510000000     0.936750000000     0.385612   
C246     C      0.579610000000     0.432270000000     0.935070000000     0.388778   
C247     C      0.924570000000     0.425740000000     0.944870000000     0.390583   
C248     C      0.586200000000     0.087620000000     0.944880000000     0.390561   
C249     C      0.837870000000     0.340390000000     0.696670000000     0.394216   
C250     C      0.671820000000     0.174070000000     0.696660000000     0.394231   
C251     C      0.830440000000     0.181470000000     0.686440000000     0.396507   
C252     C      0.671060000000     0.341170000000     0.697860000000     0.395491   
C253     C      0.680790000000     0.331440000000     0.819590000000     0.388912   
C254     C      0.829730000000     0.182190000000     0.817910000000     0.385732   
C255     C      0.835830000000     0.337960000000     0.809790000000     0.390707   
C256     C      0.674210000000     0.176080000000     0.809770000000     0.390665   
C257     C      0.660860000000     0.102970000000     0.653490000000    -0.0124105  
C258     C      0.601550000000     0.163670000000     0.652370000000    -0.0126005  
C259     C      0.658860000000     0.100030000000     0.602280000000    -0.0125544  
C260     C      0.599550000000     0.160730000000     0.601160000000    -0.0123825  
C261     C      0.602780000000     0.164080000000     0.851430000000    -0.0127447  
C262     C      0.663690000000     0.104890000000     0.852600000000    -0.0126122  
C263     C      0.596710000000     0.158810000000     0.902050000000    -0.0126956  
C264     C      0.657630000000     0.099620000000     0.903220000000    -0.0127792  
C265     C      0.600910000000     0.351320000000     0.653170000000    -0.0126424  
C266     C      0.660860000000     0.411320000000     0.652840000000    -0.0126756  
C267     C      0.599550000000     0.352390000000     0.601820000000    -0.0125764  
C268     C      0.659500000000     0.412380000000     0.601480000000    -0.0125898  
C269     C      0.868610000000     0.083520000000     0.624820000000    -0.0122663  
C270     C      0.928250000000     0.144000000000     0.624590000000    -0.0123126  
C271     C      0.832160000000     0.119700000000     0.630080000000    -0.0123489  
C272     C      0.891800000000     0.180180000000     0.629840000000    -0.0122464  
C273     C      0.906980000000     0.348400000000     0.852330000000    -0.0127024  
C274     C      0.847900000000     0.409450000000     0.851710000000    -0.0127311  
C275     C      0.912500000000     0.354260000000     0.902950000000    -0.0126826  
C276     C      0.853420000000     0.415300000000     0.902330000000    -0.0126945  
C277     C      0.928240000000     0.143920000000     0.880730000000    -0.0131729  
C278     C      0.868630000000     0.083540000000     0.880530000000    -0.0131977  
C279     C      0.891770000000     0.180160000000     0.874130000000    -0.0131452  
C280     C      0.832160000000     0.119780000000     0.873930000000    -0.013195   
C281     C      0.618790000000     0.333440000000     0.875780000000    -0.0126749  
C282     C      0.678320000000     0.393900000000     0.875470000000    -0.0126962  
C283     C      0.582090000000     0.369800000000     0.879190000000    -0.0126796  
C284     C      0.641620000000     0.430260000000     0.878880000000    -0.0126599  
C285     C      0.851490000000     0.412420000000     0.600890000000    -0.0124177  
C286     C      0.912070000000     0.353020000000     0.602560000000    -0.0124873  
C287     C      0.848340000000     0.410690000000     0.652100000000    -0.0125525  
C288     C      0.908920000000     0.351280000000     0.653770000000    -0.012436   
C289     C      0.922540000000     0.923310000000     0.057990000000     0.394168   
C290     C      0.588590000000     0.589630000000     0.058000000000     0.394241   
C291     C      0.589350000000     0.922540000000     0.056800000000     0.395518   
C292     C      0.929970000000     0.582230000000     0.068220000000     0.396533   
C293     C      0.930680000000     0.581510000000     0.436750000000     0.38565    
C294     C      0.579610000000     0.932270000000     0.435080000000     0.388813   
C295     C      0.924570000000     0.925740000000     0.444870000000     0.390601   
C296     C      0.586200000000     0.587620000000     0.444880000000     0.390619   
C297     C      0.837870000000     0.840390000000     0.196670000000     0.394198   
C298     C      0.671820000000     0.674080000000     0.196660000000     0.394281   
C299     C      0.830440000000     0.681470000000     0.186440000000     0.396489   
C300     C      0.671060000000     0.841160000000     0.197860000000     0.395594   
C301     C      0.680790000000     0.831440000000     0.319590000000     0.389026   
C302     C      0.829730000000     0.682190000000     0.317910000000     0.385685   
C303     C      0.835830000000     0.837960000000     0.309790000000     0.390713   
C304     C      0.674210000000     0.676080000000     0.309770000000     0.390617   
C305     C      0.660860000000     0.602970000000     0.153490000000    -0.0124171  
C306     C      0.601550000000     0.663670000000     0.152370000000    -0.0125518  
C307     C      0.658860000000     0.600030000000     0.102280000000    -0.0125509  
C308     C      0.599550000000     0.660740000000     0.101160000000    -0.0124632  
C309     C      0.602780000000     0.664080000000     0.351430000000    -0.0127537  
C310     C      0.663690000000     0.604890000000     0.352600000000    -0.0126229  
C311     C      0.596710000000     0.658810000000     0.402060000000    -0.0126914  
C312     C      0.657630000000     0.599620000000     0.403220000000    -0.0127634  
C313     C      0.600910000000     0.851320000000     0.153180000000    -0.0126606  
C314     C      0.660860000000     0.911320000000     0.152840000000    -0.0126823  
C315     C      0.599550000000     0.852390000000     0.101820000000    -0.0125798  
C316     C      0.659500000000     0.912380000000     0.101490000000    -0.0125785  
C317     C      0.868610000000     0.583520000000     0.124820000000    -0.012314   
C318     C      0.928250000000     0.644000000000     0.124590000000    -0.0122919  
C319     C      0.832160000000     0.619700000000     0.130080000000    -0.0123268  
C320     C      0.891800000000     0.680180000000     0.129840000000    -0.0122488  
C321     C      0.906980000000     0.848400000000     0.352330000000    -0.0126716  
C322     C      0.847900000000     0.909450000000     0.351710000000    -0.0127516  
C323     C      0.912500000000     0.854250000000     0.402950000000    -0.0127664  
C324     C      0.853420000000     0.915300000000     0.402330000000    -0.012683   
C325     C      0.928240000000     0.643920000000     0.380730000000    -0.0131841  
C326     C      0.868630000000     0.583540000000     0.380530000000    -0.0132134  
C327     C      0.891770000000     0.680160000000     0.374130000000    -0.0131336  
C328     C      0.832160000000     0.619780000000     0.373930000000    -0.0131815  
C329     C      0.618790000000     0.833440000000     0.375780000000    -0.0126655  
C330     C      0.678320000000     0.893900000000     0.375470000000    -0.0126804  
C331     C      0.582090000000     0.869800000000     0.379190000000    -0.0126861  
C332     C      0.641620000000     0.930260000000     0.378880000000    -0.0126786  
C333     C      0.851490000000     0.912420000000     0.100890000000    -0.0124132  
C334     C      0.912070000000     0.853010000000     0.102560000000    -0.0125574  
C335     C      0.848340000000     0.910690000000     0.152100000000    -0.0125567  
C336     C      0.908920000000     0.851280000000     0.153770000000    -0.0124242  
C337     C      0.922540000000     0.923310000000     0.557990000000     0.39422    
C338     C      0.588590000000     0.589630000000     0.558000000000     0.394258   
C339     C      0.589350000000     0.922540000000     0.556800000000     0.395515   
C340     C      0.929970000000     0.582230000000     0.568220000000     0.396581   
C341     C      0.930680000000     0.581510000000     0.936750000000     0.385606   
C342     C      0.579610000000     0.932270000000     0.935070000000     0.388774   
C343     C      0.924570000000     0.925740000000     0.944870000000     0.390558   
C344     C      0.586200000000     0.587620000000     0.944880000000     0.390574   
C345     C      0.837870000000     0.840390000000     0.696670000000     0.394215   
C346     C      0.671820000000     0.674080000000     0.696660000000     0.394268   
C347     C      0.830440000000     0.681470000000     0.686440000000     0.396507   
C348     C      0.671060000000     0.841160000000     0.697860000000     0.395584   
C349     C      0.680790000000     0.831440000000     0.819590000000     0.389046   
C350     C      0.829730000000     0.682190000000     0.817910000000     0.385732   
C351     C      0.835830000000     0.837960000000     0.809790000000     0.390704   
C352     C      0.674210000000     0.676080000000     0.809770000000     0.390665   
C353     C      0.660860000000     0.602970000000     0.653490000000    -0.0124099  
C354     C      0.601550000000     0.663670000000     0.652370000000    -0.0125493  
C355     C      0.658860000000     0.600030000000     0.602280000000    -0.0125568  
C356     C      0.599550000000     0.660740000000     0.601160000000    -0.0124716  
C357     C      0.602780000000     0.664080000000     0.851430000000    -0.0127466  
C358     C      0.663690000000     0.604890000000     0.852600000000    -0.0126146  
C359     C      0.596710000000     0.658810000000     0.902050000000    -0.0126939  
C360     C      0.657630000000     0.599620000000     0.903220000000    -0.0127775  
C361     C      0.600910000000     0.851320000000     0.653170000000    -0.0126509  
C362     C      0.660860000000     0.911320000000     0.652840000000    -0.0126777  
C363     C      0.599550000000     0.852390000000     0.601820000000    -0.0125729  
C364     C      0.659500000000     0.912380000000     0.601480000000    -0.0125897  
C365     C      0.868610000000     0.583520000000     0.624820000000    -0.0123048  
C366     C      0.928250000000     0.644000000000     0.624590000000    -0.0122828  
C367     C      0.832160000000     0.619700000000     0.630080000000    -0.0123332  
C368     C      0.891800000000     0.680180000000     0.629840000000    -0.0122546  
C369     C      0.906980000000     0.848400000000     0.852330000000    -0.0126697  
C370     C      0.847900000000     0.909450000000     0.851710000000    -0.0127468  
C371     C      0.912500000000     0.854250000000     0.902950000000    -0.0127628  
C372     C      0.853420000000     0.915300000000     0.902330000000    -0.0126923  
C373     C      0.928240000000     0.643920000000     0.880730000000    -0.0131745  
C374     C      0.868630000000     0.583540000000     0.880530000000    -0.0132039  
C375     C      0.891770000000     0.680160000000     0.874130000000    -0.0131446  
C376     C      0.832160000000     0.619780000000     0.873930000000    -0.0131917  
C377     C      0.618790000000     0.833440000000     0.875780000000    -0.0126665  
C378     C      0.678320000000     0.893900000000     0.875470000000    -0.0126851  
C379     C      0.582090000000     0.869800000000     0.879190000000    -0.0126829  
C380     C      0.641620000000     0.930260000000     0.878880000000    -0.0126673  
C381     C      0.851490000000     0.912420000000     0.600890000000    -0.0124184  
C382     C      0.912070000000     0.853010000000     0.602560000000    -0.0125512  
C383     C      0.848340000000     0.910690000000     0.652100000000    -0.0125534  
C384     C      0.908920000000     0.851280000000     0.653770000000    -0.0124224  
Co1      Co     0.439190000000     0.006070000000     0.003310000000     0.838149   
Co2      Co     0.072750000000     0.506340000000     0.503100000000     0.839123   
Co3      Co     0.505710000000     0.439020000000     0.003140000000     0.836769   
Co4      Co     0.505990000000     0.073140000000     0.503320000000     0.837194   
Co5      Co     0.254700000000     0.324680000000     0.251520000000     0.837183   
Co6      Co     0.254420000000     0.190560000000     0.251340000000     0.837115   
Co7      Co     0.321220000000     0.257640000000     0.251350000000     0.83891    
Co8      Co     0.187660000000     0.257370000000     0.251550000000     0.839016   
Co9      Co     0.439190000000     0.006070000000     0.503310000000     0.838633   
Co10     Co     0.072750000000     0.506340000000     0.003100000000     0.838649   
Co11     Co     0.505710000000     0.439020000000     0.503140000000     0.837244   
Co12     Co     0.505990000000     0.073140000000     0.003320000000     0.836673   
Co13     Co     0.254700000000     0.324680000000     0.751520000000     0.837183   
Co14     Co     0.254420000000     0.190560000000     0.751340000000     0.837076   
Co15     Co     0.321220000000     0.257640000000     0.751340000000     0.838936   
Co16     Co     0.187660000000     0.257370000000     0.751560000000     0.839007   
Co17     Co     0.439190000000     0.506060000000     0.003310000000     0.838414   
Co18     Co     0.072750000000     0.006330000000     0.503100000000     0.838856   
Co19     Co     0.505710000000     0.939020000000     0.003140000000     0.836867   
Co20     Co     0.505990000000     0.573140000000     0.503320000000     0.837077   
Co21     Co     0.254700000000     0.824680000000     0.251520000000     0.837149   
Co22     Co     0.254420000000     0.690560000000     0.251340000000     0.83711    
Co23     Co     0.321220000000     0.757640000000     0.251350000000     0.83891    
Co24     Co     0.187660000000     0.757370000000     0.251550000000     0.838986   
Co25     Co     0.439190000000     0.506060000000     0.503310000000     0.838897   
Co26     Co     0.072750000000     0.006330000000     0.003100000000     0.838383   
Co27     Co     0.505710000000     0.939020000000     0.503140000000     0.837342   
Co28     Co     0.505990000000     0.573140000000     0.003320000000     0.836556   
Co29     Co     0.254700000000     0.824680000000     0.751520000000     0.837149   
Co30     Co     0.254420000000     0.690560000000     0.751340000000     0.837071   
Co31     Co     0.321220000000     0.757640000000     0.751340000000     0.838936   
Co32     Co     0.187660000000     0.757370000000     0.751560000000     0.838977   
Co33     Co     0.939190000000     0.006070000000     0.003310000000     0.838297   
Co34     Co     0.572750000000     0.506340000000     0.503100000000     0.839005   
Co35     Co     0.005710000000     0.439020000000     0.003140000000     0.836499   
Co36     Co     0.005980000000     0.073140000000     0.503320000000     0.836936   
Co37     Co     0.754700000000     0.324680000000     0.251520000000     0.837174   
Co38     Co     0.754420000000     0.190560000000     0.251340000000     0.837117   
Co39     Co     0.821220000000     0.257640000000     0.251350000000     0.838866   
Co40     Co     0.687660000000     0.257370000000     0.251550000000     0.839018   
Co41     Co     0.939190000000     0.006070000000     0.503310000000     0.83878    
Co42     Co     0.572750000000     0.506340000000     0.003100000000     0.838532   
Co43     Co     0.005710000000     0.439020000000     0.503140000000     0.836974   
Co44     Co     0.005980000000     0.073140000000     0.003320000000     0.836415   
Co45     Co     0.754700000000     0.324680000000     0.751520000000     0.837174   
Co46     Co     0.754420000000     0.190560000000     0.751340000000     0.837078   
Co47     Co     0.821220000000     0.257640000000     0.751340000000     0.838892   
Co48     Co     0.687660000000     0.257370000000     0.751560000000     0.83901    
Co49     Co     0.939190000000     0.506060000000     0.003310000000     0.838561   
Co50     Co     0.572750000000     0.006330000000     0.503100000000     0.838739   
Co51     Co     0.005710000000     0.939020000000     0.003140000000     0.836598   
Co52     Co     0.005980000000     0.573140000000     0.503320000000     0.836818   
Co53     Co     0.754700000000     0.824680000000     0.251520000000     0.837139   
Co54     Co     0.754420000000     0.690560000000     0.251340000000     0.837113   
Co55     Co     0.821220000000     0.757640000000     0.251350000000     0.838866   
Co56     Co     0.687660000000     0.757370000000     0.251550000000     0.838988   
Co57     Co     0.939190000000     0.506060000000     0.503310000000     0.839044   
Co58     Co     0.572750000000     0.006330000000     0.003100000000     0.838266   
Co59     Co     0.005710000000     0.939020000000     0.503140000000     0.837072   
Co60     Co     0.005980000000     0.573140000000     0.003320000000     0.836298   
Co61     Co     0.754700000000     0.824680000000     0.751520000000     0.837139   
Co62     Co     0.754420000000     0.690560000000     0.751340000000     0.837074   
Co63     Co     0.821220000000     0.757640000000     0.751340000000     0.838892   
Co64     Co     0.687660000000     0.757370000000     0.751560000000     0.83898    
H1       H      0.075030000000     0.141050000000     0.166350000000     0.042737   
H2       H      0.137520000000     0.077090000000     0.167540000000     0.0425603  
H3       H      0.166950000000     0.064830000000     0.091830000000     0.0489461  
H4       H      0.093460000000     0.198870000000     0.162820000000     0.0489864  
H5       H      0.064830000000     0.169340000000     0.089910000000     0.0492186  
H6       H      0.122890000000     0.186610000000     0.087110000000     0.0425336  
H7       H      0.195580000000     0.094360000000     0.164740000000     0.0492603  
H8       H      0.185380000000     0.122660000000     0.088300000000     0.0427087  
H9       H      0.142590000000     0.078890000000     0.335580000000     0.042457   
H10      H      0.077890000000     0.141760000000     0.334350000000     0.0424147  
H11      H      0.060860000000     0.165790000000     0.410620000000     0.0493417  
H12      H      0.199550000000     0.097910000000     0.344040000000     0.0493479  
H13      H      0.165550000000     0.064070000000     0.412620000000     0.0493775  
H14      H      0.182510000000     0.121940000000     0.420310000000     0.0424543  
H15      H      0.094860000000     0.199630000000     0.342040000000     0.0493953  
H16      H      0.117820000000     0.184800000000     0.419070000000     0.0425068  
H17      H      0.137610000000     0.437920000000     0.165630000000     0.0425179  
H18      H      0.074520000000     0.374800000000     0.165980000000     0.0424475  
H19      H      0.064890000000     0.343700000000     0.090410000000     0.04884    
H20      H      0.195510000000     0.420000000000     0.164250000000     0.0489092  
H21      H      0.168200000000     0.447050000000     0.089830000000     0.0489168  
H22      H      0.185880000000     0.388900000000     0.088680000000     0.0424189  
H23      H      0.092210000000     0.316660000000     0.164830000000     0.0489397  
H24      H      0.122800000000     0.325780000000     0.089030000000     0.0424515  
H25      H      0.440980000000     0.135000000000     0.158560000000     0.0424434  
H26      H      0.377850000000     0.070990000000     0.158810000000     0.04238    
H27      H      0.303510000000     0.105150000000     0.149370000000     0.0488688  
H28      H      0.456900000000     0.158550000000     0.105300000000     0.0488711  
H29      H      0.406080000000     0.209160000000     0.148950000000     0.0489177  
H30      H      0.382560000000     0.192710000000     0.095850000000     0.042341   
H31      H      0.354340000000     0.054540000000     0.105720000000     0.0488903  
H32      H      0.319430000000     0.128700000000     0.096110000000     0.0423922  
H33      H      0.370030000000     0.434520000000     0.334610000000     0.0424722  
H34      H      0.432780000000     0.369680000000     0.335280000000     0.0424959  
H35      H      0.448000000000     0.346330000000     0.412120000000     0.0493193  
H36      H      0.312400000000     0.417380000000     0.342540000000     0.0493291  
H37      H      0.346450000000     0.451220000000     0.411090000000     0.049451   
H38      H      0.327630000000     0.394020000000     0.419380000000     0.042499   
H39      H      0.413950000000     0.312490000000     0.343570000000     0.0494568  
H40      H      0.390370000000     0.329190000000     0.420040000000     0.0424604  
H41      H      0.378170000000     0.070150000000     0.346960000000     0.041862   
H42      H      0.441800000000     0.134600000000     0.347170000000     0.0418981  
H43      H      0.406400000000     0.208650000000     0.354560000000     0.0489912  
H44      H      0.354010000000     0.055050000000     0.400100000000     0.048979   
H45      H      0.303990000000     0.104890000000     0.354200000000     0.0489253  
H46      H      0.318600000000     0.129100000000     0.407490000000     0.041906   
H47      H      0.456420000000     0.158810000000     0.400460000000     0.0489327  
H48      H      0.382230000000     0.193550000000     0.407710000000     0.0418705  
H49      H      0.190100000000     0.385830000000     0.410000000000     0.0423453  
H50      H      0.127170000000     0.321910000000     0.410320000000     0.0423059  
H51      H      0.052910000000     0.355740000000     0.398050000000     0.0491932  
H52      H      0.207500000000     0.407960000000     0.356620000000     0.0492281  
H53      H      0.155360000000     0.459820000000     0.397500000000     0.0492888  
H54      H      0.133240000000     0.441800000000     0.344340000000     0.0423042  
H55      H      0.105050000000     0.303880000000     0.357160000000     0.0492757  
H56      H      0.070310000000     0.377880000000     0.344660000000     0.0423205  
H57      H      0.389620000000     0.326310000000     0.088620000000     0.0427111  
H58      H      0.325790000000     0.388900000000     0.086860000000     0.0425183  
H59      H      0.313190000000     0.418800000000     0.162360000000     0.0489271  
H60      H      0.447220000000     0.344900000000     0.092300000000     0.048886   
H61      H      0.417510000000     0.316520000000     0.165240000000     0.0493256  
H62      H      0.434620000000     0.374810000000     0.167800000000     0.0425699  
H63      H      0.342900000000     0.447180000000     0.089420000000     0.0492994  
H64      H      0.370790000000     0.437400000000     0.166040000000     0.0427699  
H65      H      0.075030000000     0.141050000000     0.666350000000     0.0427284  
H66      H      0.137520000000     0.077090000000     0.667540000000     0.04255    
H67      H      0.166950000000     0.064830000000     0.591830000000     0.0489771  
H68      H      0.093460000000     0.198870000000     0.662820000000     0.0489897  
H69      H      0.064830000000     0.169340000000     0.589910000000     0.0492486  
H70      H      0.122890000000     0.186610000000     0.587110000000     0.0425855  
H71      H      0.195580000000     0.094360000000     0.664750000000     0.049264   
H72      H      0.185380000000     0.122660000000     0.588300000000     0.0427596  
H73      H      0.142590000000     0.078890000000     0.835580000000     0.0424508  
H74      H      0.077890000000     0.141760000000     0.834350000000     0.04241    
H75      H      0.060860000000     0.165790000000     0.910620000000     0.0493736  
H76      H      0.199550000000     0.097910000000     0.844040000000     0.0493556  
H77      H      0.165550000000     0.064070000000     0.912610000000     0.0494127  
H78      H      0.182510000000     0.121940000000     0.920310000000     0.0425182  
H79      H      0.094860000000     0.199630000000     0.842040000000     0.0494002  
H80      H      0.117820000000     0.184800000000     0.919070000000     0.0425633  
H81      H      0.137610000000     0.437920000000     0.665630000000     0.0425114  
H82      H      0.074520000000     0.374800000000     0.665980000000     0.0424387  
H83      H      0.064890000000     0.343700000000     0.590410000000     0.0488656  
H84      H      0.195510000000     0.420000000000     0.664250000000     0.0489117  
H85      H      0.168200000000     0.447050000000     0.589830000000     0.0489486  
H86      H      0.185880000000     0.388900000000     0.588680000000     0.0424658  
H87      H      0.092210000000     0.316660000000     0.664830000000     0.0489402  
H88      H      0.122800000000     0.325780000000     0.589020000000     0.0424908  
H89      H      0.440980000000     0.135000000000     0.658560000000     0.0424348  
H90      H      0.377850000000     0.070990000000     0.658810000000     0.0423717  
H91      H      0.303510000000     0.105150000000     0.649370000000     0.0488779  
H92      H      0.456900000000     0.158550000000     0.605300000000     0.0488895  
H93      H      0.406080000000     0.209160000000     0.648950000000     0.0489278  
H94      H      0.382560000000     0.192710000000     0.595850000000     0.0423897  
H95      H      0.354340000000     0.054540000000     0.605720000000     0.0489093  
H96      H      0.319430000000     0.128700000000     0.596110000000     0.042441   
H97      H      0.370030000000     0.434520000000     0.834610000000     0.0424684  
H98      H      0.432780000000     0.369680000000     0.835280000000     0.0424924  
H99      H      0.448000000000     0.346330000000     0.912120000000     0.0493524  
H100     H      0.312400000000     0.417380000000     0.842540000000     0.0493341  
H101     H      0.346450000000     0.451220000000     0.911090000000     0.0494866  
H102     H      0.327630000000     0.394020000000     0.919380000000     0.0425592  
H103     H      0.413950000000     0.312490000000     0.843570000000     0.0494626  
H104     H      0.390370000000     0.329190000000     0.920050000000     0.0425152  
H105     H      0.378170000000     0.070150000000     0.846960000000     0.0418589  
H106     H      0.441800000000     0.134600000000     0.847170000000     0.0418949  
H107     H      0.406400000000     0.208650000000     0.854560000000     0.0490046  
H108     H      0.354010000000     0.055050000000     0.900100000000     0.0490044  
H109     H      0.303990000000     0.104890000000     0.854200000000     0.0489403  
H110     H      0.318600000000     0.129100000000     0.907490000000     0.0419605  
H111     H      0.456420000000     0.158810000000     0.900460000000     0.0489584  
H112     H      0.382230000000     0.193550000000     0.907710000000     0.0419249  
H113     H      0.190100000000     0.385830000000     0.910000000000     0.0424067  
H114     H      0.127170000000     0.321910000000     0.910320000000     0.0423675  
H115     H      0.052910000000     0.355740000000     0.898040000000     0.0492164  
H116     H      0.207500000000     0.407960000000     0.856620000000     0.0492395  
H117     H      0.155360000000     0.459820000000     0.897500000000     0.0493126  
H118     H      0.133240000000     0.441800000000     0.844340000000     0.0422956  
H119     H      0.105050000000     0.303880000000     0.857160000000     0.0492873  
H120     H      0.070310000000     0.377880000000     0.844660000000     0.0423129  
H121     H      0.389620000000     0.326310000000     0.588610000000     0.0427548  
H122     H      0.325790000000     0.388900000000     0.586860000000     0.0425683  
H123     H      0.313190000000     0.418800000000     0.662360000000     0.0489304  
H124     H      0.447220000000     0.344900000000     0.592300000000     0.0489127  
H125     H      0.417510000000     0.316520000000     0.665240000000     0.0493297  
H126     H      0.434620000000     0.374810000000     0.667800000000     0.0425631  
H127     H      0.342900000000     0.447180000000     0.589420000000     0.0493327  
H128     H      0.370790000000     0.437400000000     0.666040000000     0.0427632  
H129     H      0.075030000000     0.641050000000     0.166350000000     0.0427357  
H130     H      0.137520000000     0.577090000000     0.167540000000     0.0425883  
H131     H      0.166950000000     0.564830000000     0.091830000000     0.0489782  
H132     H      0.093460000000     0.698880000000     0.162820000000     0.0489717  
H133     H      0.064830000000     0.669340000000     0.089910000000     0.0492451  
H134     H      0.122890000000     0.686610000000     0.087110000000     0.042557   
H135     H      0.195580000000     0.594360000000     0.164740000000     0.0492805  
H136     H      0.185380000000     0.622660000000     0.088300000000     0.042714   
H137     H      0.142590000000     0.578890000000     0.335580000000     0.0424858  
H138     H      0.077890000000     0.641760000000     0.334350000000     0.0424246  
H139     H      0.060860000000     0.665790000000     0.410620000000     0.0493417  
H140     H      0.199550000000     0.597910000000     0.344040000000     0.0493654  
H141     H      0.165550000000     0.564070000000     0.412620000000     0.0494108  
H142     H      0.182510000000     0.621940000000     0.420310000000     0.0424589  
H143     H      0.094860000000     0.699630000000     0.342040000000     0.0493955  
H144     H      0.117820000000     0.684800000000     0.419070000000     0.0425042  
H145     H      0.137610000000     0.937920000000     0.165630000000     0.0425533  
H146     H      0.074520000000     0.874800000000     0.165980000000     0.0424635  
H147     H      0.064890000000     0.843700000000     0.090410000000     0.0488391  
H148     H      0.195510000000     0.920000000000     0.164250000000     0.0489365  
H149     H      0.168200000000     0.947050000000     0.089830000000     0.048951   
H150     H      0.185880000000     0.888900000000     0.088680000000     0.0424225  
H151     H      0.092210000000     0.816660000000     0.164830000000     0.0489447  
H152     H      0.122800000000     0.825780000000     0.089030000000     0.0424464  
H153     H      0.440980000000     0.635000000000     0.158560000000     0.0424434  
H154     H      0.377850000000     0.570990000000     0.158810000000     0.0424142  
H155     H      0.303510000000     0.605150000000     0.149370000000     0.0488798  
H156     H      0.456900000000     0.658550000000     0.105300000000     0.0488652  
H157     H      0.406080000000     0.709160000000     0.148950000000     0.0489192  
H158     H      0.382560000000     0.692710000000     0.095850000000     0.0423425  
H159     H      0.354340000000     0.554540000000     0.105720000000     0.0489319  
H160     H      0.319430000000     0.628700000000     0.096110000000     0.0423946  
H161     H      0.370030000000     0.934520000000     0.334610000000     0.0425078  
H162     H      0.432780000000     0.869680000000     0.335280000000     0.0425003  
H163     H      0.448000000000     0.846330000000     0.412120000000     0.0493447  
H164     H      0.312400000000     0.917370000000     0.342540000000     0.0493601  
H165     H      0.346450000000     0.951220000000     0.411090000000     0.0494862  
H166     H      0.327630000000     0.894020000000     0.419380000000     0.0425049  
H167     H      0.413950000000     0.812490000000     0.343570000000     0.0494503  
H168     H      0.390370000000     0.829190000000     0.420040000000     0.0424843  
H169     H      0.378170000000     0.570150000000     0.346960000000     0.0418917  
H170     H      0.441800000000     0.634600000000     0.347170000000     0.0419075  
H171     H      0.406400000000     0.708650000000     0.354560000000     0.0489911  
H172     H      0.354010000000     0.555050000000     0.400100000000     0.0490155  
H173     H      0.303990000000     0.604890000000     0.354200000000     0.0489392  
H174     H      0.318600000000     0.629100000000     0.407490000000     0.0419107  
H175     H      0.456420000000     0.658810000000     0.400460000000     0.0489341  
H176     H      0.382230000000     0.693550000000     0.407710000000     0.0418692  
H177     H      0.190100000000     0.885820000000     0.410000000000     0.0423494  
H178     H      0.127170000000     0.821910000000     0.410320000000     0.0423007  
H179     H      0.052910000000     0.855740000000     0.398050000000     0.0491952  
H180     H      0.207500000000     0.907960000000     0.356620000000     0.0492408  
H181     H      0.155360000000     0.959820000000     0.397500000000     0.0493306  
H182     H      0.133240000000     0.941800000000     0.344340000000     0.0423377  
H183     H      0.105050000000     0.803880000000     0.357160000000     0.0492746  
H184     H      0.070310000000     0.877880000000     0.344660000000     0.042334   
H185     H      0.389620000000     0.826300000000     0.088620000000     0.0427244  
H186     H      0.325790000000     0.888900000000     0.086860000000     0.0425245  
H187     H      0.313190000000     0.918800000000     0.162360000000     0.0489477  
H188     H      0.447220000000     0.844910000000     0.092300000000     0.0489148  
H189     H      0.417510000000     0.816520000000     0.165240000000     0.049323   
H190     H      0.434620000000     0.874800000000     0.167800000000     0.0425804  
H191     H      0.342900000000     0.947180000000     0.089420000000     0.0493329  
H192     H      0.370790000000     0.937400000000     0.166040000000     0.0428042  
H193     H      0.075030000000     0.641050000000     0.666350000000     0.0427271  
H194     H      0.137520000000     0.577090000000     0.667540000000     0.042578   
H195     H      0.166950000000     0.564830000000     0.591830000000     0.0490092  
H196     H      0.093460000000     0.698880000000     0.662820000000     0.048975   
H197     H      0.064830000000     0.669340000000     0.589910000000     0.0492751  
H198     H      0.122890000000     0.686610000000     0.587110000000     0.042609   
H199     H      0.195580000000     0.594360000000     0.664750000000     0.0492842  
H200     H      0.185380000000     0.622660000000     0.588300000000     0.0427649  
H201     H      0.142590000000     0.578890000000     0.835580000000     0.0424795  
H202     H      0.077890000000     0.641760000000     0.834350000000     0.0424199  
H203     H      0.060860000000     0.665790000000     0.910620000000     0.0493736  
H204     H      0.199550000000     0.597910000000     0.844040000000     0.049373   
H205     H      0.165550000000     0.564070000000     0.912610000000     0.049446   
H206     H      0.182510000000     0.621940000000     0.920310000000     0.0425228  
H207     H      0.094860000000     0.699630000000     0.842040000000     0.0494003  
H208     H      0.117820000000     0.684800000000     0.919070000000     0.0425606  
H209     H      0.137610000000     0.937920000000     0.665630000000     0.0425468  
H210     H      0.074520000000     0.874800000000     0.665980000000     0.0424547  
H211     H      0.064890000000     0.843700000000     0.590410000000     0.0488648  
H212     H      0.195510000000     0.920000000000     0.664250000000     0.048939   
H213     H      0.168200000000     0.947050000000     0.589830000000     0.0489828  
H214     H      0.185880000000     0.888900000000     0.588680000000     0.0424695  
H215     H      0.092210000000     0.816660000000     0.664830000000     0.0489451  
H216     H      0.122800000000     0.825780000000     0.589020000000     0.0424856  
H217     H      0.440980000000     0.635000000000     0.658560000000     0.0424348  
H218     H      0.377850000000     0.570990000000     0.658810000000     0.0424059  
H219     H      0.303510000000     0.605150000000     0.649370000000     0.0488888  
H220     H      0.456900000000     0.658550000000     0.605300000000     0.0488836  
H221     H      0.406080000000     0.709160000000     0.648950000000     0.0489293  
H222     H      0.382560000000     0.692710000000     0.595850000000     0.0423913  
H223     H      0.354340000000     0.554540000000     0.605720000000     0.0489509  
H224     H      0.319430000000     0.628700000000     0.596110000000     0.0424434  
H225     H      0.370030000000     0.934520000000     0.834610000000     0.0425041  
H226     H      0.432780000000     0.869680000000     0.835280000000     0.0424968  
H227     H      0.448000000000     0.846330000000     0.912120000000     0.0493778  
H228     H      0.312400000000     0.917370000000     0.842540000000     0.0493652  
H229     H      0.346450000000     0.951220000000     0.911090000000     0.0495218  
H230     H      0.327630000000     0.894020000000     0.919380000000     0.0425651  
H231     H      0.413950000000     0.812490000000     0.843570000000     0.0494561  
H232     H      0.390370000000     0.829190000000     0.920050000000     0.0425391  
H233     H      0.378170000000     0.570150000000     0.846960000000     0.0418886  
H234     H      0.441800000000     0.634600000000     0.847170000000     0.0419043  
H235     H      0.406400000000     0.708650000000     0.854560000000     0.0490045  
H236     H      0.354010000000     0.555050000000     0.900100000000     0.0490409  
H237     H      0.303990000000     0.604890000000     0.854200000000     0.0489543  
H238     H      0.318600000000     0.629100000000     0.907490000000     0.0419653  
H239     H      0.456420000000     0.658810000000     0.900460000000     0.0489598  
H240     H      0.382230000000     0.693550000000     0.907710000000     0.0419236  
H241     H      0.190100000000     0.885820000000     0.910000000000     0.0424107  
H242     H      0.127170000000     0.821910000000     0.910320000000     0.0423623  
H243     H      0.052910000000     0.855740000000     0.898040000000     0.0492184  
H244     H      0.207500000000     0.907960000000     0.856620000000     0.0492522  
H245     H      0.155360000000     0.959820000000     0.897500000000     0.0493545  
H246     H      0.133240000000     0.941800000000     0.844340000000     0.042329   
H247     H      0.105050000000     0.803880000000     0.857160000000     0.0492863  
H248     H      0.070310000000     0.877880000000     0.844660000000     0.0423264  
H249     H      0.389620000000     0.826300000000     0.588610000000     0.0427682  
H250     H      0.325790000000     0.888900000000     0.586860000000     0.0425745  
H251     H      0.313190000000     0.918800000000     0.662360000000     0.048951   
H252     H      0.447220000000     0.844910000000     0.592300000000     0.0489414  
H253     H      0.417510000000     0.816520000000     0.665240000000     0.0493271  
H254     H      0.434620000000     0.874800000000     0.667800000000     0.0425736  
H255     H      0.342900000000     0.947180000000     0.589420000000     0.0493662  
H256     H      0.370790000000     0.937400000000     0.666040000000     0.0427975  
H257     H      0.575030000000     0.141050000000     0.166350000000     0.0427711  
H258     H      0.637530000000     0.077090000000     0.167540000000     0.0425745  
H259     H      0.666950000000     0.064830000000     0.091830000000     0.0489452  
H260     H      0.593470000000     0.198870000000     0.162820000000     0.0490158  
H261     H      0.564830000000     0.169340000000     0.089910000000     0.0492484  
H262     H      0.622890000000     0.186610000000     0.087110000000     0.042536   
H263     H      0.695580000000     0.094360000000     0.164740000000     0.0492639  
H264     H      0.685380000000     0.122660000000     0.088300000000     0.0427061  
H265     H      0.642590000000     0.078890000000     0.335580000000     0.0424545  
H266     H      0.577900000000     0.141760000000     0.334350000000     0.0424547  
H267     H      0.560860000000     0.165790000000     0.410620000000     0.0493754  
H268     H      0.699550000000     0.097910000000     0.344040000000     0.0493344  
H269     H      0.665550000000     0.064070000000     0.412620000000     0.0493866  
H270     H      0.682510000000     0.121940000000     0.420310000000     0.0424581  
H271     H      0.594860000000     0.199630000000     0.342040000000     0.0494186  
H272     H      0.617820000000     0.184800000000     0.419070000000     0.0425124  
H273     H      0.637610000000     0.437920000000     0.165630000000     0.0425274  
H274     H      0.574520000000     0.374800000000     0.165980000000     0.0424782  
H275     H      0.564890000000     0.343700000000     0.090410000000     0.0488558  
H276     H      0.695510000000     0.420000000000     0.164250000000     0.04891    
H277     H      0.668200000000     0.447050000000     0.089830000000     0.0489167  
H278     H      0.685880000000     0.388900000000     0.088680000000     0.0424167  
H279     H      0.592210000000     0.316660000000     0.164830000000     0.0489611  
H280     H      0.622800000000     0.325780000000     0.089030000000     0.0424464  
H281     H      0.940980000000     0.135000000000     0.158560000000     0.0424744  
H282     H      0.877850000000     0.070990000000     0.158810000000     0.0423889  
H283     H      0.803520000000     0.105150000000     0.149370000000     0.04888    
H284     H      0.956900000000     0.158550000000     0.105300000000     0.0489082  
H285     H      0.906070000000     0.209160000000     0.148950000000     0.0489504  
H286     H      0.882560000000     0.192710000000     0.095850000000     0.0423509  
H287     H      0.854340000000     0.054540000000     0.105720000000     0.0488894  
H288     H      0.819430000000     0.128700000000     0.096110000000     0.0423987  
H289     H      0.870030000000     0.434520000000     0.334610000000     0.0424848  
H290     H      0.932780000000     0.369680000000     0.335280000000     0.0425265  
H291     H      0.948000000000     0.346330000000     0.412120000000     0.0493529  
H292     H      0.812400000000     0.417380000000     0.342540000000     0.0493317  
H293     H      0.846450000000     0.451220000000     0.411090000000     0.0494448  
H294     H      0.827620000000     0.394020000000     0.419380000000     0.0424836  
H295     H      0.913950000000     0.312490000000     0.343570000000     0.0494752  
H296     H      0.890370000000     0.329190000000     0.420040000000     0.0424671  
H297     H      0.878170000000     0.070150000000     0.346960000000     0.041873   
H298     H      0.941800000000     0.134600000000     0.347170000000     0.0419298  
H299     H      0.906400000000     0.208650000000     0.354560000000     0.0490005  
H300     H      0.854010000000     0.055050000000     0.400100000000     0.0489807  
H301     H      0.803990000000     0.104890000000     0.354200000000     0.0489235  
H302     H      0.818600000000     0.129100000000     0.407490000000     0.0419039  
H303     H      0.956420000000     0.158810000000     0.400460000000     0.0489716  
H304     H      0.882230000000     0.193550000000     0.407710000000     0.041875   
H305     H      0.690100000000     0.385830000000     0.410000000000     0.0423469  
H306     H      0.627170000000     0.321910000000     0.410320000000     0.0423079  
H307     H      0.552910000000     0.355740000000     0.398050000000     0.0492309  
H308     H      0.707500000000     0.407960000000     0.356620000000     0.0492293  
H309     H      0.655360000000     0.459820000000     0.397500000000     0.0492853  
H310     H      0.633240000000     0.441800000000     0.344340000000     0.0423063  
H311     H      0.605050000000     0.303880000000     0.357160000000     0.0492866  
H312     H      0.570300000000     0.377880000000     0.344660000000     0.0423471  
H313     H      0.889620000000     0.326310000000     0.088620000000     0.0427161  
H314     H      0.825790000000     0.388900000000     0.086860000000     0.0425161  
H315     H      0.813190000000     0.418800000000     0.162360000000     0.0489295  
H316     H      0.947220000000     0.344900000000     0.092300000000     0.0489186  
H317     H      0.917510000000     0.316520000000     0.165240000000     0.0493519  
H318     H      0.934620000000     0.374810000000     0.167800000000     0.0426029  
H319     H      0.842900000000     0.447180000000     0.089420000000     0.049299   
H320     H      0.870790000000     0.437400000000     0.166040000000     0.0427821  
H321     H      0.575030000000     0.141050000000     0.666350000000     0.0427626  
H322     H      0.637530000000     0.077090000000     0.667540000000     0.0425641  
H323     H      0.666950000000     0.064830000000     0.591830000000     0.0489762  
H324     H      0.593470000000     0.198870000000     0.662820000000     0.049019   
H325     H      0.564830000000     0.169340000000     0.589910000000     0.0492784  
H326     H      0.622890000000     0.186610000000     0.587110000000     0.042588   
H327     H      0.695580000000     0.094360000000     0.664750000000     0.0492676  
H328     H      0.685380000000     0.122660000000     0.588300000000     0.042757   
H329     H      0.642590000000     0.078890000000     0.835580000000     0.0424482  
H330     H      0.577900000000     0.141760000000     0.834350000000     0.04245    
H331     H      0.560860000000     0.165790000000     0.910620000000     0.0494073  
H332     H      0.699550000000     0.097910000000     0.844040000000     0.049342   
H333     H      0.665550000000     0.064070000000     0.912610000000     0.0494217  
H334     H      0.682510000000     0.121940000000     0.920310000000     0.042522   
H335     H      0.594860000000     0.199630000000     0.842040000000     0.0494234  
H336     H      0.617820000000     0.184800000000     0.919070000000     0.0425689  
H337     H      0.637610000000     0.437920000000     0.665630000000     0.0425209  
H338     H      0.574520000000     0.374800000000     0.665980000000     0.0424693  
H339     H      0.564890000000     0.343700000000     0.590410000000     0.0488814  
H340     H      0.695510000000     0.420000000000     0.664250000000     0.0489125  
H341     H      0.668200000000     0.447050000000     0.589830000000     0.0489485  
H342     H      0.685880000000     0.388900000000     0.588680000000     0.0424636  
H343     H      0.592210000000     0.316660000000     0.664830000000     0.0489615  
H344     H      0.622800000000     0.325780000000     0.589020000000     0.0424856  
H345     H      0.940980000000     0.135000000000     0.658560000000     0.0424658  
H346     H      0.877850000000     0.070990000000     0.658810000000     0.0423806  
H347     H      0.803520000000     0.105150000000     0.649370000000     0.048889   
H348     H      0.956900000000     0.158550000000     0.605300000000     0.0489266  
H349     H      0.906070000000     0.209160000000     0.648950000000     0.0489605  
H350     H      0.882560000000     0.192710000000     0.595850000000     0.0423996  
H351     H      0.854340000000     0.054540000000     0.605720000000     0.0489085  
H352     H      0.819430000000     0.128700000000     0.596110000000     0.0424475  
H353     H      0.870030000000     0.434520000000     0.834610000000     0.042481   
H354     H      0.932780000000     0.369680000000     0.835280000000     0.042523   
H355     H      0.948000000000     0.346330000000     0.912120000000     0.049386   
H356     H      0.812400000000     0.417380000000     0.842540000000     0.0493368  
H357     H      0.846450000000     0.451220000000     0.911090000000     0.0494804  
H358     H      0.827620000000     0.394020000000     0.919380000000     0.0425439  
H359     H      0.913950000000     0.312490000000     0.843570000000     0.049481   
H360     H      0.890370000000     0.329190000000     0.920050000000     0.042522   
H361     H      0.878170000000     0.070150000000     0.846960000000     0.0418698  
H362     H      0.941800000000     0.134600000000     0.847170000000     0.0419266  
H363     H      0.906400000000     0.208650000000     0.854560000000     0.0490139  
H364     H      0.854010000000     0.055050000000     0.900100000000     0.0490061  
H365     H      0.803990000000     0.104890000000     0.854200000000     0.0489385  
H366     H      0.818600000000     0.129100000000     0.907490000000     0.0419585  
H367     H      0.956420000000     0.158810000000     0.900460000000     0.0489973  
H368     H      0.882230000000     0.193550000000     0.907710000000     0.0419294  
H369     H      0.690100000000     0.385830000000     0.910000000000     0.0424083  
H370     H      0.627170000000     0.321910000000     0.910320000000     0.0423695  
H371     H      0.552910000000     0.355740000000     0.898040000000     0.0492542  
H372     H      0.707500000000     0.407960000000     0.856620000000     0.0492407  
H373     H      0.655360000000     0.459820000000     0.897500000000     0.0493092  
H374     H      0.633240000000     0.441800000000     0.844340000000     0.0422977  
H375     H      0.605050000000     0.303880000000     0.857160000000     0.0492983  
H376     H      0.570300000000     0.377880000000     0.844660000000     0.0423395  
H377     H      0.889620000000     0.326310000000     0.588610000000     0.0427599  
H378     H      0.825790000000     0.388900000000     0.586860000000     0.0425661  
H379     H      0.813190000000     0.418800000000     0.662360000000     0.0489328  
H380     H      0.947220000000     0.344900000000     0.592300000000     0.0489453  
H381     H      0.917510000000     0.316520000000     0.665240000000     0.049356   
H382     H      0.934620000000     0.374810000000     0.667800000000     0.0425961  
H383     H      0.842900000000     0.447180000000     0.589420000000     0.0493323  
H384     H      0.870790000000     0.437400000000     0.666040000000     0.0427754  
H385     H      0.575030000000     0.641050000000     0.166350000000     0.0427698  
H386     H      0.637530000000     0.577090000000     0.167540000000     0.0426024  
H387     H      0.666950000000     0.564830000000     0.091830000000     0.0489773  
H388     H      0.593470000000     0.698880000000     0.162820000000     0.0490011  
H389     H      0.564830000000     0.669340000000     0.089910000000     0.0492749  
H390     H      0.622890000000     0.686610000000     0.087110000000     0.0425594  
H391     H      0.695580000000     0.594360000000     0.164740000000     0.0492841  
H392     H      0.685380000000     0.622660000000     0.088300000000     0.0427114  
H393     H      0.642590000000     0.578890000000     0.335580000000     0.0424832  
H394     H      0.577900000000     0.641760000000     0.334350000000     0.0424645  
H395     H      0.560860000000     0.665790000000     0.410620000000     0.0493754  
H396     H      0.699550000000     0.597910000000     0.344040000000     0.0493519  
H397     H      0.665550000000     0.564070000000     0.412620000000     0.0494199  
H398     H      0.682510000000     0.621940000000     0.420310000000     0.0424628  
H399     H      0.594860000000     0.699630000000     0.342040000000     0.0494187  
H400     H      0.617820000000     0.684800000000     0.419070000000     0.0425098  
H401     H      0.637610000000     0.937920000000     0.165630000000     0.0425628  
H402     H      0.574520000000     0.874800000000     0.165980000000     0.0424942  
H403     H      0.564890000000     0.843700000000     0.090410000000     0.0488549  
H404     H      0.695510000000     0.920000000000     0.164250000000     0.0489373  
H405     H      0.668200000000     0.947050000000     0.089830000000     0.0489509  
H406     H      0.685880000000     0.888900000000     0.088680000000     0.0424203  
H407     H      0.592210000000     0.816660000000     0.164830000000     0.048966   
H408     H      0.622800000000     0.825780000000     0.089030000000     0.0424412  
H409     H      0.940980000000     0.635000000000     0.158560000000     0.0424744  
H410     H      0.877850000000     0.570990000000     0.158810000000     0.0424231  
H411     H      0.803520000000     0.605150000000     0.149370000000     0.0488909  
H412     H      0.956900000000     0.658550000000     0.105300000000     0.0489022  
H413     H      0.906070000000     0.709160000000     0.148950000000     0.0489519  
H414     H      0.882560000000     0.692710000000     0.095850000000     0.0423524  
H415     H      0.854340000000     0.554540000000     0.105720000000     0.048931   
H416     H      0.819430000000     0.628700000000     0.096110000000     0.042401   
H417     H      0.870030000000     0.934520000000     0.334610000000     0.0425204  
H418     H      0.932780000000     0.869680000000     0.335280000000     0.0425309  
H419     H      0.948000000000     0.846330000000     0.412120000000     0.0493783  
H420     H      0.812400000000     0.917370000000     0.342540000000     0.0493627  
H421     H      0.846450000000     0.951220000000     0.411090000000     0.04948    
H422     H      0.827620000000     0.894020000000     0.419380000000     0.0424895  
H423     H      0.913950000000     0.812490000000     0.343570000000     0.0494688  
H424     H      0.890370000000     0.829190000000     0.420040000000     0.042491   
H425     H      0.878170000000     0.570150000000     0.346960000000     0.0419027  
H426     H      0.941800000000     0.634600000000     0.347170000000     0.0419392  
H427     H      0.906400000000     0.708650000000     0.354560000000     0.0490004  
H428     H      0.854010000000     0.555050000000     0.400100000000     0.0490171  
H429     H      0.803990000000     0.604890000000     0.354200000000     0.0489375  
H430     H      0.818600000000     0.629100000000     0.407490000000     0.0419086  
H431     H      0.956420000000     0.658810000000     0.400460000000     0.0489731  
H432     H      0.882230000000     0.693550000000     0.407710000000     0.0418738  
H433     H      0.690100000000     0.885820000000     0.410000000000     0.042351   
H434     H      0.627170000000     0.821910000000     0.410320000000     0.0423027  
H435     H      0.552910000000     0.855740000000     0.398050000000     0.0492329  
H436     H      0.707500000000     0.907960000000     0.356620000000     0.049242   
H437     H      0.655360000000     0.959820000000     0.397500000000     0.0493272  
H438     H      0.633240000000     0.941800000000     0.344340000000     0.0423398  
H439     H      0.605050000000     0.803880000000     0.357160000000     0.0492856  
H440     H      0.570300000000     0.877880000000     0.344660000000     0.0423606  
H441     H      0.889620000000     0.826300000000     0.088620000000     0.0427295  
H442     H      0.825790000000     0.888900000000     0.086860000000     0.0425223  
H443     H      0.813190000000     0.918800000000     0.162360000000     0.0489501  
H444     H      0.947220000000     0.844910000000     0.092300000000     0.0489474  
H445     H      0.917510000000     0.816520000000     0.165240000000     0.0493493  
H446     H      0.934620000000     0.874800000000     0.167800000000     0.0426134  
H447     H      0.842900000000     0.947180000000     0.089420000000     0.0493325  
H448     H      0.870790000000     0.937400000000     0.166040000000     0.0428164  
H449     H      0.575030000000     0.641050000000     0.666350000000     0.0427613  
H450     H      0.637530000000     0.577090000000     0.667540000000     0.0425921  
H451     H      0.666950000000     0.564830000000     0.591830000000     0.0490084  
H452     H      0.593470000000     0.698880000000     0.662820000000     0.0490043  
H453     H      0.564830000000     0.669340000000     0.589910000000     0.0493049  
H454     H      0.622890000000     0.686610000000     0.587110000000     0.0426114  
H455     H      0.695580000000     0.594360000000     0.664750000000     0.0492879  
H456     H      0.685380000000     0.622660000000     0.588300000000     0.0427623  
H457     H      0.642590000000     0.578890000000     0.835580000000     0.0424769  
H458     H      0.577900000000     0.641760000000     0.834350000000     0.0424598  
H459     H      0.560860000000     0.665790000000     0.910620000000     0.0494073  
H460     H      0.699550000000     0.597910000000     0.844040000000     0.0493595  
H461     H      0.665550000000     0.564070000000     0.912610000000     0.049455   
H462     H      0.682510000000     0.621940000000     0.920310000000     0.0425266  
H463     H      0.594860000000     0.699630000000     0.842040000000     0.0494236  
H464     H      0.617820000000     0.684800000000     0.919070000000     0.0425662  
H465     H      0.637610000000     0.937920000000     0.665630000000     0.0425563  
H466     H      0.574520000000     0.874800000000     0.665980000000     0.0424853  
H467     H      0.564890000000     0.843700000000     0.590410000000     0.0488806  
H468     H      0.695510000000     0.920000000000     0.664250000000     0.0489398  
H469     H      0.668200000000     0.947050000000     0.589830000000     0.0489827  
H470     H      0.685880000000     0.888900000000     0.588680000000     0.0424672  
H471     H      0.592210000000     0.816660000000     0.664830000000     0.0489665  
H472     H      0.622800000000     0.825780000000     0.589020000000     0.0424805  
H473     H      0.940980000000     0.635000000000     0.658560000000     0.0424658  
H474     H      0.877850000000     0.570990000000     0.658810000000     0.0424147  
H475     H      0.803520000000     0.605150000000     0.649370000000     0.0489     
H476     H      0.956900000000     0.658550000000     0.605300000000     0.0489206  
H477     H      0.906070000000     0.709160000000     0.648950000000     0.048962   
H478     H      0.882560000000     0.692710000000     0.595850000000     0.0424012  
H479     H      0.854340000000     0.554540000000     0.605720000000     0.0489501  
H480     H      0.819430000000     0.628700000000     0.596110000000     0.0424498  
H481     H      0.870030000000     0.934520000000     0.834610000000     0.0425167  
H482     H      0.932780000000     0.869680000000     0.835280000000     0.0425274  
H483     H      0.948000000000     0.846330000000     0.912120000000     0.0494114  
H484     H      0.812400000000     0.917370000000     0.842540000000     0.0493678  
H485     H      0.846450000000     0.951220000000     0.911090000000     0.0495156  
H486     H      0.827620000000     0.894020000000     0.919380000000     0.0425498  
H487     H      0.913950000000     0.812490000000     0.843570000000     0.0494746  
H488     H      0.890370000000     0.829190000000     0.920050000000     0.0425458  
H489     H      0.878170000000     0.570150000000     0.846960000000     0.0418995  
H490     H      0.941800000000     0.634600000000     0.847170000000     0.041936   
H491     H      0.906400000000     0.708650000000     0.854560000000     0.0490138  
H492     H      0.854010000000     0.555050000000     0.900100000000     0.0490425  
H493     H      0.803990000000     0.604890000000     0.854200000000     0.0489525  
H494     H      0.818600000000     0.629100000000     0.907490000000     0.0419632  
H495     H      0.956420000000     0.658810000000     0.900460000000     0.0489988  
H496     H      0.882230000000     0.693550000000     0.907710000000     0.0419282  
H497     H      0.690100000000     0.885820000000     0.910000000000     0.0424123  
H498     H      0.627170000000     0.821910000000     0.910320000000     0.0423643  
H499     H      0.552910000000     0.855740000000     0.898040000000     0.0492562  
H500     H      0.707500000000     0.907960000000     0.856620000000     0.0492534  
H501     H      0.655360000000     0.959820000000     0.897500000000     0.0493511  
H502     H      0.633240000000     0.941800000000     0.844340000000     0.0423311  
H503     H      0.605050000000     0.803880000000     0.857160000000     0.0492972  
H504     H      0.570300000000     0.877880000000     0.844660000000     0.042353   
H505     H      0.889620000000     0.826300000000     0.588610000000     0.0427733  
H506     H      0.825790000000     0.888900000000     0.586860000000     0.0425724  
H507     H      0.813190000000     0.918800000000     0.662360000000     0.0489534  
H508     H      0.947220000000     0.844910000000     0.592300000000     0.0489741  
H509     H      0.917510000000     0.816520000000     0.665240000000     0.0493534  
H510     H      0.934620000000     0.874800000000     0.667800000000     0.0426066  
H511     H      0.842900000000     0.947180000000     0.589420000000     0.0493658  
H512     H      0.870790000000     0.937400000000     0.666040000000     0.0428097  
N1       N      0.114370000000     0.115500000000     0.086210000000    -0.162579   
N2       N      0.146040000000     0.148200000000     0.168440000000    -0.162529   
N3       N      0.111750000000     0.113520000000     0.416540000000    -0.162051   
N4       N      0.148660000000     0.150180000000     0.338120000000    -0.162008   
N5       N      0.115000000000     0.396900000000     0.085410000000    -0.163051   
N6       N      0.145410000000     0.366810000000     0.169250000000    -0.163021   
N7       N      0.351370000000     0.160560000000     0.151160000000    -0.163532   
N8       N      0.409050000000     0.103140000000     0.103500000000    -0.163547   
N9       N      0.398670000000     0.400200000000     0.416530000000    -0.162056   
N10      N      0.361740000000     0.363500000000     0.338130000000    -0.162032   
N11      N      0.351280000000     0.160660000000     0.352730000000    -0.161326   
N12      N      0.409130000000     0.103040000000     0.401940000000    -0.161362   
N13      N      0.100610000000     0.411270000000     0.399740000000    -0.162119   
N14      N      0.159790000000     0.352430000000     0.354910000000    -0.162189   
N15      N      0.363740000000     0.366160000000     0.168450000000    -0.162552   
N16      N      0.396670000000     0.397540000000     0.086200000000    -0.16259    
N17      N      0.114370000000     0.115500000000     0.586210000000    -0.162563   
N18      N      0.146040000000     0.148200000000     0.668440000000    -0.162529   
N19      N      0.111750000000     0.113520000000     0.916540000000    -0.162019   
N20      N      0.148660000000     0.150180000000     0.838120000000    -0.162014   
N21      N      0.115000000000     0.396900000000     0.585420000000    -0.163007   
N22      N      0.145410000000     0.366810000000     0.669250000000    -0.16302    
N23      N      0.351370000000     0.160560000000     0.651160000000    -0.163528   
N24      N      0.409050000000     0.103140000000     0.603500000000    -0.163548   
N25      N      0.398670000000     0.400200000000     0.916530000000    -0.162025   
N26      N      0.361740000000     0.363500000000     0.838130000000    -0.16203    
N27      N      0.351280000000     0.160660000000     0.852720000000    -0.161353   
N28      N      0.409130000000     0.103040000000     0.901940000000    -0.16134    
N29      N      0.100610000000     0.411270000000     0.899750000000    -0.162164   
N30      N      0.159790000000     0.352430000000     0.854910000000    -0.162184   
N31      N      0.363740000000     0.366160000000     0.668450000000    -0.162555   
N32      N      0.396670000000     0.397540000000     0.586200000000    -0.16258    
N33      N      0.114370000000     0.615500000000     0.086210000000    -0.162563   
N34      N      0.146040000000     0.648200000000     0.168440000000    -0.162511   
N35      N      0.111750000000     0.613520000000     0.416540000000    -0.162048   
N36      N      0.148660000000     0.650180000000     0.338120000000    -0.162006   
N37      N      0.115000000000     0.896900000000     0.085410000000    -0.163046   
N38      N      0.145410000000     0.866810000000     0.169250000000    -0.162999   
N39      N      0.351370000000     0.660560000000     0.151160000000    -0.163532   
N40      N      0.409050000000     0.603150000000     0.103500000000    -0.163515   
N41      N      0.398670000000     0.900200000000     0.416530000000    -0.162034   
N42      N      0.361740000000     0.863500000000     0.338130000000    -0.162032   
N43      N      0.351280000000     0.660660000000     0.352730000000    -0.161326   
N44      N      0.409130000000     0.603040000000     0.401940000000    -0.161354   
N45      N      0.100610000000     0.911270000000     0.399740000000    -0.162109   
N46      N      0.159790000000     0.852430000000     0.354910000000    -0.162213   
N47      N      0.363740000000     0.866160000000     0.168450000000    -0.162549   
N48      N      0.396670000000     0.897540000000     0.086200000000    -0.16257    
N49      N      0.114370000000     0.615500000000     0.586210000000    -0.162547   
N50      N      0.146040000000     0.648200000000     0.668440000000    -0.162511   
N51      N      0.111750000000     0.613520000000     0.916540000000    -0.162016   
N52      N      0.148660000000     0.650180000000     0.838120000000    -0.162011   
N53      N      0.115000000000     0.896900000000     0.585420000000    -0.163002   
N54      N      0.145410000000     0.866810000000     0.669250000000    -0.162999   
N55      N      0.351370000000     0.660560000000     0.651160000000    -0.163528   
N56      N      0.409050000000     0.603150000000     0.603500000000    -0.163515   
N57      N      0.398670000000     0.900200000000     0.916530000000    -0.162003   
N58      N      0.361740000000     0.863500000000     0.838130000000    -0.16203    
N59      N      0.351280000000     0.660660000000     0.852720000000    -0.161353   
N60      N      0.409130000000     0.603040000000     0.901940000000    -0.161332   
N61      N      0.100610000000     0.911270000000     0.899750000000    -0.162154   
N62      N      0.159790000000     0.852430000000     0.854910000000    -0.162208   
N63      N      0.363740000000     0.866160000000     0.668450000000    -0.162552   
N64      N      0.396670000000     0.897540000000     0.586200000000    -0.16256    
N65      N      0.614370000000     0.115500000000     0.086210000000    -0.162578   
N66      N      0.646040000000     0.148200000000     0.168440000000    -0.162523   
N67      N      0.611750000000     0.113520000000     0.416540000000    -0.162028   
N68      N      0.648660000000     0.150180000000     0.338120000000    -0.16201    
N69      N      0.615000000000     0.396900000000     0.085410000000    -0.163054   
N70      N      0.645410000000     0.366810000000     0.169250000000    -0.163016   
N71      N      0.851370000000     0.160560000000     0.151160000000    -0.163507   
N72      N      0.909050000000     0.103140000000     0.103500000000    -0.163541   
N73      N      0.898670000000     0.400200000000     0.416530000000    -0.162052   
N74      N      0.861740000000     0.363500000000     0.338130000000    -0.162028   
N75      N      0.851280000000     0.160660000000     0.352730000000    -0.161344   
N76      N      0.909130000000     0.103040000000     0.401940000000    -0.161353   
N77      N      0.600620000000     0.411270000000     0.399740000000    -0.162066   
N78      N      0.659790000000     0.352430000000     0.354910000000    -0.162188   
N79      N      0.863740000000     0.366160000000     0.168450000000    -0.162531   
N80      N      0.896670000000     0.397540000000     0.086200000000    -0.162584   
N81      N      0.614370000000     0.115500000000     0.586210000000    -0.162562   
N82      N      0.646040000000     0.148200000000     0.668440000000    -0.162523   
N83      N      0.611750000000     0.113520000000     0.916540000000    -0.161997   
N84      N      0.648660000000     0.150180000000     0.838120000000    -0.162016   
N85      N      0.615000000000     0.396900000000     0.585420000000    -0.16301    
N86      N      0.645410000000     0.366810000000     0.669250000000    -0.163015   
N87      N      0.851370000000     0.160560000000     0.651160000000    -0.163503   
N88      N      0.909050000000     0.103140000000     0.603500000000    -0.163542   
N89      N      0.898670000000     0.400200000000     0.916530000000    -0.162022   
N90      N      0.861740000000     0.363500000000     0.838130000000    -0.162025   
N91      N      0.851280000000     0.160660000000     0.852720000000    -0.161371   
N92      N      0.909130000000     0.103040000000     0.901940000000    -0.161332   
N93      N      0.600620000000     0.411270000000     0.899750000000    -0.162111   
N94      N      0.659790000000     0.352430000000     0.854910000000    -0.162183   
N95      N      0.863740000000     0.366160000000     0.668450000000    -0.162533   
N96      N      0.896670000000     0.397540000000     0.586200000000    -0.162574   
N97      N      0.614370000000     0.615500000000     0.086210000000    -0.162562   
N98      N      0.646040000000     0.648200000000     0.168440000000    -0.162505   
N99      N      0.611750000000     0.613520000000     0.416540000000    -0.162026   
N100     N      0.648660000000     0.650180000000     0.338120000000    -0.162008   
N101     N      0.615000000000     0.896900000000     0.085410000000    -0.163049   
N102     N      0.645410000000     0.866810000000     0.169250000000    -0.162995   
N103     N      0.851370000000     0.660560000000     0.151160000000    -0.163507   
N104     N      0.909050000000     0.603150000000     0.103500000000    -0.163508   
N105     N      0.898670000000     0.900200000000     0.416530000000    -0.16203    
N106     N      0.861740000000     0.863500000000     0.338130000000    -0.162028   
N107     N      0.851280000000     0.660660000000     0.352730000000    -0.161344   
N108     N      0.909130000000     0.603040000000     0.401940000000    -0.161345   
N109     N      0.600620000000     0.911270000000     0.399740000000    -0.162056   
N110     N      0.659790000000     0.852430000000     0.354910000000    -0.162212   
N111     N      0.863740000000     0.866160000000     0.168450000000    -0.162528   
N112     N      0.896670000000     0.897540000000     0.086200000000    -0.162564   
N113     N      0.614370000000     0.615500000000     0.586210000000    -0.162546   
N114     N      0.646040000000     0.648200000000     0.668440000000    -0.162505   
N115     N      0.611750000000     0.613520000000     0.916540000000    -0.161994   
N116     N      0.648660000000     0.650180000000     0.838120000000    -0.162014   
N117     N      0.615000000000     0.896900000000     0.585420000000    -0.163005   
N118     N      0.645410000000     0.866810000000     0.669250000000    -0.162994   
N119     N      0.851370000000     0.660560000000     0.651160000000    -0.163503   
N120     N      0.909050000000     0.603150000000     0.603500000000    -0.163509   
N121     N      0.898670000000     0.900200000000     0.916530000000    -0.161999   
N122     N      0.861740000000     0.863500000000     0.838130000000    -0.162025   
N123     N      0.851280000000     0.660660000000     0.852720000000    -0.161371   
N124     N      0.909130000000     0.603040000000     0.901940000000    -0.161323   
N125     N      0.600620000000     0.911270000000     0.899750000000    -0.1621     
N126     N      0.659790000000     0.852430000000     0.854910000000    -0.162207   
N127     N      0.863740000000     0.866160000000     0.668450000000    -0.16253    
N128     N      0.896670000000     0.897540000000     0.586200000000    -0.162554   
O1       O      0.407540000000     0.461450000000     0.044230000000    -0.358789   
O2       O      0.103070000000     0.050870000000     0.045350000000    -0.362373   
O3       O      0.050960000000     0.407780000000     0.043790000000    -0.367328   
O4       O      0.466300000000     0.099030000000     0.052250000000    -0.368538   
O5       O      0.104030000000     0.461020000000     0.043680000000    -0.367503   
O6       O      0.413390000000     0.045680000000     0.052340000000    -0.368864   
O7       O      0.050570000000     0.104740000000     0.044300000000    -0.358715   
O8       O      0.461180000000     0.408720000000     0.045400000000    -0.362177   
O9       O      0.414230000000     0.044810000000     0.452630000000    -0.372467   
O10      O      0.096420000000     0.468630000000     0.451270000000    -0.371813   
O11      O      0.462240000000     0.410080000000     0.459000000000    -0.364552   
O12      O      0.047770000000     0.102230000000     0.457960000000    -0.365508   
O13      O      0.101730000000     0.049820000000     0.459030000000    -0.364736   
O14      O      0.410080000000     0.464300000000     0.457980000000    -0.365649   
O15      O      0.467170000000     0.098170000000     0.452710000000    -0.372163   
O16      O      0.043510000000     0.415220000000     0.451410000000    -0.371534   
O17      O      0.505980000000     0.506070000000     0.021640000000    -0.589784   
O18      O      0.299230000000     0.354980000000     0.209260000000    -0.36216    
O19      O      0.209840000000     0.158960000000     0.210360000000    -0.358723   
O20      O      0.347020000000     0.218020000000     0.202320000000    -0.368818   
O21      O      0.156380000000     0.302680000000     0.210980000000    -0.367485   
O22      O      0.294110000000     0.164670000000     0.202410000000    -0.368544   
O23      O      0.209450000000     0.355920000000     0.210870000000    -0.36732    
O24      O      0.157340000000     0.212830000000     0.209310000000    -0.362392   
O25      O      0.352860000000     0.302250000000     0.210430000000    -0.358833   
O26      O      0.216900000000     0.348480000000     0.303250000000    -0.371421   
O27      O      0.293240000000     0.165530000000     0.301950000000    -0.372136   
O28      O      0.350330000000     0.299410000000     0.296680000000    -0.365692   
O29      O      0.158670000000     0.213880000000     0.295630000000    -0.36464    
O30      O      0.212640000000     0.161470000000     0.296690000000    -0.365552   
O31      O      0.298170000000     0.353630000000     0.295660000000    -0.364587   
O32      O      0.163990000000     0.295070000000     0.303390000000    -0.371703   
O33      O      0.346180000000     0.218890000000     0.302030000000    -0.372413   
O34      O      0.254430000000     0.257630000000     0.233020000000    -0.589955   
O35      O      0.407540000000     0.461450000000     0.544230000000    -0.358775   
O36      O      0.103070000000     0.050870000000     0.545350000000    -0.362352   
O37      O      0.050960000000     0.407780000000     0.543790000000    -0.367313   
O38      O      0.466300000000     0.099030000000     0.552250000000    -0.368555   
O39      O      0.104030000000     0.461020000000     0.543680000000    -0.367488   
O40      O      0.413390000000     0.045680000000     0.552340000000    -0.368877   
O41      O      0.050570000000     0.104740000000     0.544290000000    -0.358701   
O42      O      0.461180000000     0.408720000000     0.545400000000    -0.362168   
O43      O      0.414230000000     0.044810000000     0.952630000000    -0.372225   
O44      O      0.096420000000     0.468630000000     0.951270000000    -0.371537   
O45      O      0.462240000000     0.410080000000     0.959000000000    -0.364299   
O46      O      0.047770000000     0.102230000000     0.957960000000    -0.365262   
O47      O      0.101730000000     0.049820000000     0.959030000000    -0.364484   
O48      O      0.410080000000     0.464300000000     0.957980000000    -0.365397   
O49      O      0.467170000000     0.098170000000     0.952710000000    -0.371918   
O50      O      0.043510000000     0.415220000000     0.951410000000    -0.371256   
O51      O      0.505980000000     0.506070000000     0.521640000000    -0.589943   
O52      O      0.299230000000     0.354980000000     0.709260000000    -0.362165   
O53      O      0.209840000000     0.158960000000     0.710360000000    -0.358723   
O54      O      0.347020000000     0.218020000000     0.702320000000    -0.368864   
O55      O      0.156380000000     0.302680000000     0.710980000000    -0.367444   
O56      O      0.294110000000     0.164670000000     0.702410000000    -0.368546   
O57      O      0.209450000000     0.355920000000     0.710870000000    -0.367313   
O58      O      0.157340000000     0.212830000000     0.709310000000    -0.36235    
O59      O      0.352860000000     0.302250000000     0.710430000000    -0.358874   
O60      O      0.216900000000     0.348480000000     0.803250000000    -0.371425   
O61      O      0.293240000000     0.165530000000     0.801950000000    -0.372137   
O62      O      0.350330000000     0.299410000000     0.796680000000    -0.365653   
O63      O      0.158670000000     0.213880000000     0.795630000000    -0.364689   
O64      O      0.212640000000     0.161470000000     0.796700000000    -0.365551   
O65      O      0.298170000000     0.353630000000     0.795660000000    -0.36458    
O66      O      0.163990000000     0.295070000000     0.803390000000    -0.371745   
O67      O      0.346180000000     0.218890000000     0.802030000000    -0.372384   
O68      O      0.254430000000     0.257630000000     0.733020000000    -0.589948   
O69      O      0.407540000000     0.961450000000     0.044230000000    -0.358639   
O70      O      0.103070000000     0.550870000000     0.045350000000    -0.362402   
O71      O      0.050960000000     0.907780000000     0.043790000000    -0.367327   
O72      O      0.466300000000     0.599030000000     0.052250000000    -0.368511   
O73      O      0.104030000000     0.961020000000     0.043680000000    -0.367434   
O74      O      0.413390000000     0.545680000000     0.052340000000    -0.368807   
O75      O      0.050570000000     0.604740000000     0.044300000000    -0.358715   
O76      O      0.461180000000     0.908720000000     0.045400000000    -0.362158   
O77      O      0.414230000000     0.544810000000     0.452630000000    -0.372412   
O78      O      0.096420000000     0.968630000000     0.451270000000    -0.371731   
O79      O      0.462240000000     0.910080000000     0.459000000000    -0.364531   
O80      O      0.047770000000     0.602230000000     0.457960000000    -0.365503   
O81      O      0.101730000000     0.549820000000     0.459030000000    -0.364757   
O82      O      0.410080000000     0.964300000000     0.457980000000    -0.365498   
O83      O      0.467170000000     0.598170000000     0.452710000000    -0.372142   
O84      O      0.043510000000     0.915220000000     0.451410000000    -0.371527   
O85      O      0.505980000000     0.006080000000     0.021640000000    -0.589828   
O86      O      0.299230000000     0.854980000000     0.209260000000    -0.362152   
O87      O      0.209840000000     0.658960000000     0.210360000000    -0.358703   
O88      O      0.347020000000     0.718020000000     0.202320000000    -0.368818   
O89      O      0.156380000000     0.802690000000     0.210980000000    -0.367609   
O90      O      0.294110000000     0.664670000000     0.202410000000    -0.36854    
O91      O      0.209450000000     0.855930000000     0.210870000000    -0.36726    
O92      O      0.157340000000     0.712830000000     0.209310000000    -0.362472   
O93      O      0.352860000000     0.802250000000     0.210430000000    -0.358833   
O94      O      0.216900000000     0.848480000000     0.303250000000    -0.371446   
O95      O      0.293240000000     0.665530000000     0.301950000000    -0.372131   
O96      O      0.350330000000     0.799410000000     0.296680000000    -0.365691   
O97      O      0.158670000000     0.713880000000     0.295630000000    -0.364643   
O98      O      0.212640000000     0.661470000000     0.296690000000    -0.365546   
O99      O      0.298170000000     0.853630000000     0.295660000000    -0.364576   
O100     O      0.163990000000     0.795080000000     0.303390000000    -0.371766   
O101     O      0.346180000000     0.718890000000     0.302030000000    -0.372412   
O102     O      0.254430000000     0.757630000000     0.233020000000    -0.589959   
O103     O      0.407540000000     0.961450000000     0.544230000000    -0.358624   
O104     O      0.103070000000     0.550870000000     0.545350000000    -0.36238    
O105     O      0.050960000000     0.907780000000     0.543790000000    -0.367312   
O106     O      0.466300000000     0.599030000000     0.552250000000    -0.368528   
O107     O      0.104030000000     0.961020000000     0.543680000000    -0.367419   
O108     O      0.413390000000     0.545680000000     0.552340000000    -0.368819   
O109     O      0.050570000000     0.604740000000     0.544290000000    -0.3587     
O110     O      0.461180000000     0.908720000000     0.545400000000    -0.36215    
O111     O      0.414230000000     0.544810000000     0.952630000000    -0.372169   
O112     O      0.096420000000     0.968630000000     0.951270000000    -0.371456   
O113     O      0.462240000000     0.910080000000     0.959000000000    -0.364278   
O114     O      0.047770000000     0.602230000000     0.957960000000    -0.365257   
O115     O      0.101730000000     0.549820000000     0.959030000000    -0.364505   
O116     O      0.410080000000     0.964300000000     0.957980000000    -0.365247   
O117     O      0.467170000000     0.598170000000     0.952710000000    -0.371897   
O118     O      0.043510000000     0.915220000000     0.951410000000    -0.371249   
O119     O      0.505980000000     0.006080000000     0.521640000000    -0.589987   
O120     O      0.299230000000     0.854980000000     0.709260000000    -0.362158   
O121     O      0.209840000000     0.658960000000     0.710360000000    -0.358703   
O122     O      0.347020000000     0.718020000000     0.702320000000    -0.368865   
O123     O      0.156380000000     0.802690000000     0.710980000000    -0.367568   
O124     O      0.294110000000     0.664670000000     0.702410000000    -0.368542   
O125     O      0.209450000000     0.855930000000     0.710870000000    -0.367253   
O126     O      0.157340000000     0.712830000000     0.709310000000    -0.362431   
O127     O      0.352860000000     0.802250000000     0.710430000000    -0.358874   
O128     O      0.216900000000     0.848480000000     0.803250000000    -0.37145    
O129     O      0.293240000000     0.665530000000     0.801950000000    -0.372131   
O130     O      0.350330000000     0.799410000000     0.796680000000    -0.365652   
O131     O      0.158670000000     0.713880000000     0.795630000000    -0.364692   
O132     O      0.212640000000     0.661470000000     0.796700000000    -0.365545   
O133     O      0.298170000000     0.853630000000     0.795660000000    -0.364569   
O134     O      0.163990000000     0.795080000000     0.803390000000    -0.371808   
O135     O      0.346180000000     0.718890000000     0.802030000000    -0.372383   
O136     O      0.254430000000     0.757630000000     0.733020000000    -0.589951   
O137     O      0.907540000000     0.461450000000     0.044230000000    -0.358783   
O138     O      0.603070000000     0.050870000000     0.045350000000    -0.362371   
O139     O      0.550960000000     0.407780000000     0.043790000000    -0.367321   
O140     O      0.966300000000     0.099030000000     0.052250000000    -0.368462   
O141     O      0.604030000000     0.461020000000     0.043680000000    -0.367492   
O142     O      0.913390000000     0.045680000000     0.052340000000    -0.368864   
O143     O      0.550570000000     0.104740000000     0.044300000000    -0.358742   
O144     O      0.961180000000     0.408720000000     0.045400000000    -0.362069   
O145     O      0.914230000000     0.044810000000     0.452630000000    -0.372466   
O146     O      0.596420000000     0.468630000000     0.451270000000    -0.371759   
O147     O      0.962240000000     0.410080000000     0.459000000000    -0.364451   
O148     O      0.547770000000     0.102230000000     0.457960000000    -0.365512   
O149     O      0.601740000000     0.049820000000     0.459030000000    -0.364658   
O150     O      0.910080000000     0.464300000000     0.457980000000    -0.365644   
O151     O      0.967170000000     0.098170000000     0.452710000000    -0.372084   
O152     O      0.543500000000     0.415220000000     0.451410000000    -0.371441   
O153     O      0.005980000000     0.506070000000     0.021640000000    -0.589833   
O154     O      0.799230000000     0.354980000000     0.209260000000    -0.362145   
O155     O      0.709840000000     0.158960000000     0.210360000000    -0.358724   
O156     O      0.847030000000     0.218020000000     0.202320000000    -0.36874    
O157     O      0.656380000000     0.302680000000     0.210980000000    -0.367479   
O158     O      0.794110000000     0.164670000000     0.202410000000    -0.368527   
O159     O      0.709450000000     0.355920000000     0.210870000000    -0.36732    
O160     O      0.657340000000     0.212830000000     0.209310000000    -0.362389   
O161     O      0.852870000000     0.302250000000     0.210430000000    -0.358754   
O162     O      0.716900000000     0.348480000000     0.303250000000    -0.37142    
O163     O      0.793240000000     0.165530000000     0.301950000000    -0.372151   
O164     O      0.850330000000     0.299410000000     0.296680000000    -0.365677   
O165     O      0.658670000000     0.213880000000     0.295630000000    -0.364635   
O166     O      0.712640000000     0.161470000000     0.296690000000    -0.365551   
O167     O      0.798170000000     0.353630000000     0.295660000000    -0.364585   
O168     O      0.663990000000     0.295070000000     0.303390000000    -0.371698   
O169     O      0.846170000000     0.218890000000     0.302030000000    -0.372476   
O170     O      0.754430000000     0.257630000000     0.233020000000    -0.58996    
O171     O      0.907540000000     0.461450000000     0.544230000000    -0.358769   
O172     O      0.603070000000     0.050870000000     0.545350000000    -0.362349   
O173     O      0.550960000000     0.407780000000     0.543790000000    -0.367306   
O174     O      0.966300000000     0.099030000000     0.552250000000    -0.368479   
O175     O      0.604030000000     0.461020000000     0.543680000000    -0.367477   
O176     O      0.913390000000     0.045680000000     0.552340000000    -0.368876   
O177     O      0.550570000000     0.104740000000     0.544290000000    -0.358728   
O178     O      0.961180000000     0.408720000000     0.545400000000    -0.362061   
O179     O      0.914230000000     0.044810000000     0.952630000000    -0.372224   
O180     O      0.596420000000     0.468630000000     0.951270000000    -0.371483   
O181     O      0.962240000000     0.410080000000     0.959000000000    -0.364198   
O182     O      0.547770000000     0.102230000000     0.957960000000    -0.365266   
O183     O      0.601740000000     0.049820000000     0.959030000000    -0.364406   
O184     O      0.910080000000     0.464300000000     0.957980000000    -0.365392   
O185     O      0.967170000000     0.098170000000     0.952710000000    -0.371839   
O186     O      0.543500000000     0.415220000000     0.951410000000    -0.371163   
O187     O      0.005980000000     0.506070000000     0.521640000000    -0.589992   
O188     O      0.799230000000     0.354980000000     0.709260000000    -0.36215    
O189     O      0.709840000000     0.158960000000     0.710360000000    -0.358724   
O190     O      0.847030000000     0.218020000000     0.702320000000    -0.368786   
O191     O      0.656380000000     0.302680000000     0.710980000000    -0.367439   
O192     O      0.794110000000     0.164670000000     0.702410000000    -0.368528   
O193     O      0.709450000000     0.355920000000     0.710870000000    -0.367314   
O194     O      0.657340000000     0.212830000000     0.709310000000    -0.362347   
O195     O      0.852870000000     0.302250000000     0.710430000000    -0.358795   
O196     O      0.716900000000     0.348480000000     0.803250000000    -0.371423   
O197     O      0.793240000000     0.165530000000     0.801950000000    -0.372152   
O198     O      0.850330000000     0.299410000000     0.796680000000    -0.365638   
O199     O      0.658670000000     0.213880000000     0.795630000000    -0.364684   
O200     O      0.712640000000     0.161470000000     0.796700000000    -0.36555    
O201     O      0.798170000000     0.353630000000     0.795660000000    -0.364578   
O202     O      0.663990000000     0.295070000000     0.803390000000    -0.37174    
O203     O      0.846170000000     0.218890000000     0.802030000000    -0.372446   
O204     O      0.754430000000     0.257630000000     0.733020000000    -0.589952   
O205     O      0.907540000000     0.961450000000     0.044230000000    -0.358633   
O206     O      0.603070000000     0.550870000000     0.045350000000    -0.362399   
O207     O      0.550960000000     0.907780000000     0.043790000000    -0.36732    
O208     O      0.966300000000     0.599030000000     0.052250000000    -0.368435   
O209     O      0.604030000000     0.961020000000     0.043680000000    -0.367423   
O210     O      0.913390000000     0.545680000000     0.052340000000    -0.368806   
O211     O      0.550570000000     0.604740000000     0.044300000000    -0.358741   
O212     O      0.961180000000     0.908720000000     0.045400000000    -0.362051   
O213     O      0.914230000000     0.544810000000     0.452630000000    -0.372411   
O214     O      0.596420000000     0.968630000000     0.451270000000    -0.371677   
O215     O      0.962240000000     0.910080000000     0.459000000000    -0.364429   
O216     O      0.547770000000     0.602230000000     0.457960000000    -0.365507   
O217     O      0.601740000000     0.549820000000     0.459030000000    -0.364679   
O218     O      0.910080000000     0.964300000000     0.457980000000    -0.365493   
O219     O      0.967170000000     0.598170000000     0.452710000000    -0.372063   
O220     O      0.543500000000     0.915220000000     0.451410000000    -0.371434   
O221     O      0.005980000000     0.006080000000     0.021640000000    -0.589877   
O222     O      0.799230000000     0.854980000000     0.209260000000    -0.362138   
O223     O      0.709840000000     0.658960000000     0.210360000000    -0.358704   
O224     O      0.847030000000     0.718020000000     0.202320000000    -0.36874    
O225     O      0.656380000000     0.802690000000     0.210980000000    -0.367604   
O226     O      0.794110000000     0.664670000000     0.202410000000    -0.368522   
O227     O      0.709450000000     0.855930000000     0.210870000000    -0.36726    
O228     O      0.657340000000     0.712830000000     0.209310000000    -0.362469   
O229     O      0.852870000000     0.802250000000     0.210430000000    -0.358753   
O230     O      0.716900000000     0.848480000000     0.303250000000    -0.371445   
O231     O      0.793240000000     0.665530000000     0.301950000000    -0.372146   
O232     O      0.850330000000     0.799410000000     0.296680000000    -0.365676   
O233     O      0.658670000000     0.713880000000     0.295630000000    -0.364638   
O234     O      0.712640000000     0.661470000000     0.296690000000    -0.365545   
O235     O      0.798170000000     0.853630000000     0.295660000000    -0.364574   
O236     O      0.663990000000     0.795080000000     0.303390000000    -0.371761   
O237     O      0.846170000000     0.718890000000     0.302030000000    -0.372475   
O238     O      0.754430000000     0.757630000000     0.233020000000    -0.589963   
O239     O      0.907540000000     0.961450000000     0.544230000000    -0.358619   
O240     O      0.603070000000     0.550870000000     0.545350000000    -0.362378   
O241     O      0.550960000000     0.907780000000     0.543790000000    -0.367305   
O242     O      0.966300000000     0.599030000000     0.552250000000    -0.368453   
O243     O      0.604030000000     0.961020000000     0.543680000000    -0.367408   
O244     O      0.913390000000     0.545680000000     0.552340000000    -0.368819   
O245     O      0.550570000000     0.604740000000     0.544290000000    -0.358727   
O246     O      0.961180000000     0.908720000000     0.545400000000    -0.362042   
O247     O      0.914230000000     0.544810000000     0.952630000000    -0.372168   
O248     O      0.596420000000     0.968630000000     0.951270000000    -0.371402   
O249     O      0.962240000000     0.910080000000     0.959000000000    -0.364177   
O250     O      0.547770000000     0.602230000000     0.957960000000    -0.365261   
O251     O      0.601740000000     0.549820000000     0.959030000000    -0.364427   
O252     O      0.910080000000     0.964300000000     0.957980000000    -0.365241   
O253     O      0.967170000000     0.598170000000     0.952710000000    -0.371818   
O254     O      0.543500000000     0.915220000000     0.951410000000    -0.371156   
O255     O      0.005980000000     0.006080000000     0.521640000000    -0.590036   
O256     O      0.799230000000     0.854980000000     0.709260000000    -0.362143   
O257     O      0.709840000000     0.658960000000     0.710360000000    -0.358704   
O258     O      0.847030000000     0.718020000000     0.702320000000    -0.368787   
O259     O      0.656380000000     0.802690000000     0.710980000000    -0.367563   
O260     O      0.794110000000     0.664670000000     0.702410000000    -0.368524   
O261     O      0.709450000000     0.855930000000     0.710870000000    -0.367253   
O262     O      0.657340000000     0.712830000000     0.709310000000    -0.362428   
O263     O      0.852870000000     0.802250000000     0.710430000000    -0.358794   
O264     O      0.716900000000     0.848480000000     0.803250000000    -0.371449   
O265     O      0.793240000000     0.665530000000     0.801950000000    -0.372146   
O266     O      0.850330000000     0.799410000000     0.796680000000    -0.365637   
O267     O      0.658670000000     0.713880000000     0.795630000000    -0.364686   
O268     O      0.712640000000     0.661470000000     0.796700000000    -0.365544   
O269     O      0.798170000000     0.853630000000     0.795660000000    -0.364567   
O270     O      0.663990000000     0.795080000000     0.803390000000    -0.371802   
O271     O      0.846170000000     0.718890000000     0.802030000000    -0.372446   
O272     O      0.754430000000     0.757630000000     0.733020000000    -0.589956   


