data_structure

_audit_creation_method RASPA-1.0
_audit_creation_date 2023-6-4
_audit_author_name 'Poobodin Mano'

_cell_length_a    31.6666
_cell_length_b    31.4391
_cell_length_c    32.7002
_cell_angle_alpha 87.1348
_cell_angle_beta  93.8215
_cell_angle_gamma 120.436
_cell_volume      28001.7

_symmetry_cell_setting          triclinic
_symmetry_space_group_name_Hall 'P 1'
_symmetry_space_group_name_H-M  'P 1'
_symmetry_Int_Tables_number     1

_symmetry_equiv_pos_as_xyz 'x,y,z'

loop_
_atom_site_label
_atom_site_type_symbol
_atom_site_fract_x
_atom_site_fract_y
_atom_site_fract_z
_atom_site_charge
C1       C      0.025890000000     0.142280000000     0.990070000000     0.484343   
C2       C      0.913030000000     0.950170000000     0.990170000000     0.434771   
C3       C      0.014880000000     0.023240000000     0.917260000000     0.468482   
C4       C      0.958820000000     0.088800000000     0.083930000000     0.411978   
C5       C      0.027440000000     0.033170000000     0.124670000000     0.474137   
C6       C      0.120210000000     0.031570000000     0.980760000000     0.487532   
C7       C      0.128980000000     0.143910000000     0.041890000000     0.46613    
C8       C      0.986320000000     0.919950000000     0.058960000000     0.433106   
C9       C      0.016830000000     0.048940000000     0.421730000000     0.472885   
C10      C      0.083610000000     0.153160000000     0.542520000000     0.453945   
C11      C      0.919090000000     0.004420000000     0.490490000000     0.370211   
C12      C      0.167020000000     0.145060000000     0.503770000000     0.485611   
C13      C      0.142180000000     0.023030000000     0.530130000000     0.480954   
C14      C      0.951360000000     0.966790000000     0.576280000000     0.466911   
C15      C      0.025490000000     0.948140000000     0.462750000000     0.477972   
C16      C      0.039550000000     0.054360000000     0.621020000000     0.448875   
C17      C      0.967320000000     0.431600000000     0.969610000000     0.450739   
C18      C      0.032680000000     0.648680000000     0.995130000000     0.477615   
C19      C      0.943250000000     0.536430000000     0.065900000000     0.467205   
C20      C      0.056130000000     0.561680000000     0.913380000000     0.476318   
C21      C      0.146890000000     0.545950000000     0.977770000000     0.386665   
C22      C      0.042500000000     0.528410000000     0.112980000000     0.455699   
C23      C      0.051570000000     0.452500000000     0.053200000000     0.483736   
C24      C      0.121910000000     0.658980000000     0.069860000000     0.388756   
C25      C      0.946350000000     0.449110000000     0.475860000000     0.468905   
C26      C      0.051840000000     0.658010000000     0.462690000000     0.478176   
C27      C      0.933890000000     0.524830000000     0.546430000000     0.445036   
C28      C      0.081040000000     0.553820000000     0.412900000000     0.47557    
C29      C      0.146530000000     0.549910000000     0.511290000000     0.490892   
C30      C      0.042710000000     0.557400000000     0.610780000000     0.444522   
C31      C      0.042110000000     0.427100000000     0.517120000000     0.406803   
C32      C      0.126040000000     0.659240000000     0.553340000000     0.478704   
C33      C      0.457430000000     0.092010000000     0.001030000000     0.441406   
C34      C      0.565460000000     0.970020000000     0.027170000000     0.466019   
C35      C      0.533790000000     0.060940000000     0.945220000000     0.470177   
C36      C      0.436270000000     0.954190000000     0.081290000000     0.484474   
C37      C      0.518480000000     0.051040000000     0.149170000000     0.477645   
C38      C      0.657240000000     0.141980000000     0.982040000000     0.402981   
C39      C      0.546990000000     0.162810000000     0.080710000000     0.450408   
C40      C      0.649700000000     0.081080000000     0.083520000000     0.478471   
C41      C      0.466880000000     0.077990000000     0.508250000000     0.431274   
C42      C      0.558420000000     0.951530000000     0.511910000000     0.470941   
C43      C      0.540680000000     0.063510000000     0.446460000000     0.477812   
C44      C      0.440210000000     0.933730000000     0.575300000000     0.478018   
C45      C      0.522240000000     0.021360000000     0.649120000000     0.462402   
C46      C      0.661750000000     0.133290000000     0.487910000000     0.394363   
C47      C      0.549620000000     0.136460000000     0.593690000000     0.4523     
C48      C      0.650440000000     0.045670000000     0.573510000000     0.488236   
C49      C      0.452780000000     0.432530000000     0.038130000000     0.442237   
C50      C      0.558590000000     0.659240000000     0.024970000000     0.464974   
C51      C      0.442440000000     0.568220000000     0.096790000000     0.483607   
C52      C      0.569150000000     0.547100000000     0.978330000000     0.49595    
C53      C      0.633910000000     0.520390000000     0.060890000000     0.383966   
C54      C      0.524630000000     0.548050000000     0.167020000000     0.479229   
C55      C      0.529860000000     0.456170000000     0.126580000000     0.456518   
C56      C      0.625550000000     0.674790000000     0.108900000000     0.378646   
C57      C      0.440970000000     0.464490000000     0.525490000000     0.491668   
C58      C      0.538830000000     0.645170000000     0.526180000000     0.476838   
C59      C      0.445460000000     0.551480000000     0.613830000000     0.524188   
C60      C      0.560200000000     0.515570000000     0.462330000000     0.434703   
C61      C      0.640230000000     0.547420000000     0.555270000000     0.473265   
C62      C      0.541640000000     0.543770000000     0.680230000000     0.558507   
C63      C      0.517420000000     0.425140000000     0.585020000000     0.474611   
C64      C      0.647470000000     0.668980000000     0.586710000000     0.478878   
C65      C      0.525690000000     0.498060000000     0.785590000000    -0.0917007  
C66      C      0.563650000000     0.538900000000     0.806280000000     0.0388203  
C67      C      0.597430000000     0.579240000000     0.782970000000    -0.0910476  
C68      C      0.590090000000     0.580010000000     0.740630000000     0.0809072  
C69      C      0.520930000000     0.499150000000     0.743100000000     0.0818974  
C70      C      0.566080000000     0.540750000000     0.851690000000     0.0362988  
C71      C      0.586360000000     0.586140000000     0.871300000000    -0.0876803  
C72      C      0.587440000000     0.587480000000     0.913710000000     0.0779035  
C73      C      0.545660000000     0.500030000000     0.918160000000     0.0793284  
C74      C      0.546080000000     0.497360000000     0.875880000000    -0.0874334  
C75      C      0.504800000000     0.494680000000     0.270780000000    -0.0883237  
C76      C      0.550820000000     0.524420000000     0.290130000000     0.0368956  
C77      C      0.588490000000     0.560990000000     0.266990000000    -0.0874665  
C78      C      0.579200000000     0.568350000000     0.225790000000     0.0777557  
C79      C      0.496770000000     0.503040000000     0.229520000000     0.0767321  
C80      C      0.557830000000     0.521010000000     0.335060000000     0.0366312  
C81      C      0.581160000000     0.564190000000     0.357700000000    -0.0885921  
C82      C      0.582760000000     0.561340000000     0.400180000000     0.0782906  
C83      C      0.540950000000     0.473870000000     0.398860000000     0.0740805  
C84      C      0.538230000000     0.475370000000     0.355970000000    -0.0869089  
C85      C      0.497860000000     0.823740000000     0.482420000000    -0.0878252  
C86      C      0.538020000000     0.818440000000     0.475630000000     0.033615   
C87      C      0.584000000000     0.861270000000     0.471220000000    -0.0850138  
C88      C      0.589780000000     0.907720000000     0.478800000000     0.0720272  
C89      C      0.505230000000     0.869870000000     0.491140000000     0.0752796  
C90      C      0.533570000000     0.769670000000     0.484920000000     0.0362103  
C91      C      0.517200000000     0.748100000000     0.523320000000    -0.0904458  
C92      C      0.516480000000     0.704830000000     0.535210000000     0.0760673  
C93      C      0.543870000000     0.700360000000     0.470700000000     0.0742319  
C94      C      0.546390000000     0.745110000000     0.458010000000    -0.0876069  
C95      C      0.504180000000     0.215100000000     0.624900000000    -0.0883631  
C96      C      0.543880000000     0.261550000000     0.615590000000     0.0345384  
C97      C      0.588480000000     0.265560000000     0.607400000000    -0.0872157  
C98      C      0.591450000000     0.222920000000     0.604920000000     0.0714033  
C99      C      0.508270000000     0.173120000000     0.621710000000     0.0736223  
C100     C      0.536900000000     0.304350000000     0.608370000000     0.0343365  
C101     C      0.531760000000     0.318970000000     0.568170000000    -0.0877783  
C102     C      0.524630000000     0.359070000000     0.560930000000     0.0738904  
C103     C      0.528480000000     0.371000000000     0.632460000000     0.0717119  
C104     C      0.534900000000     0.330440000000     0.640790000000    -0.0883014  
C105     C      0.478950000000     0.030700000000     0.747840000000    -0.087655   
C106     C      0.513720000000     0.028790000000     0.775470000000     0.035498   
C107     C      0.552040000000     0.025530000000     0.759720000000    -0.0868517  
C108     C      0.554890000000     0.024070000000     0.717400000000     0.0731726  
C109     C      0.482550000000     0.028540000000     0.705670000000     0.0734822  
C110     C      0.511450000000     0.032100000000     0.820410000000     0.0353013  
C111     C      0.502940000000     0.067530000000     0.836220000000    -0.0861171  
C112     C      0.507450000000     0.074600000000     0.878520000000     0.0743727  
C113     C      0.524360000000     0.009560000000     0.890160000000     0.0764421  
C114     C      0.520670000000     0.001870000000     0.848010000000    -0.0858959  
C115     C      0.475780000000     0.055770000000     0.249740000000    -0.0884256  
C116     C      0.511650000000     0.053690000000     0.275770000000     0.0359886  
C117     C      0.551150000000     0.054330000000     0.258610000000    -0.0890375  
C118     C      0.553670000000     0.055580000000     0.216270000000     0.0745766  
C119     C      0.478920000000     0.056000000000     0.207120000000     0.0735198  
C120     C      0.509320000000     0.051370000000     0.320840000000     0.0354153  
C121     C      0.510370000000     0.089550000000     0.341820000000    -0.0873091  
C122     C      0.518410000000     0.091740000000     0.384420000000     0.0746116  
C123     C      0.519560000000     0.016810000000     0.385900000000     0.0776656  
C124     C      0.512350000000     0.013900000000     0.343360000000    -0.0874857  
C125     C      0.514740000000     0.745620000000     0.006450000000    -0.0845975  
C126     C      0.557580000000     0.789670000000     0.995790000000     0.0336055  
C127     C      0.598330000000     0.785290000000     0.987180000000    -0.0850418  
C128     C      0.597080000000     0.740020000000     0.993630000000     0.0695234  
C129     C      0.514610000000     0.701280000000     0.011570000000     0.0756817  
C130     C      0.560050000000     0.839190000000     0.996860000000     0.0330715  
C131     C      0.517290000000     0.841620000000     0.000740000000    -0.0839542  
C132     C      0.520170000000     0.885790000000     0.010140000000     0.0737181  
C133     C      0.606080000000     0.929150000000     0.004490000000     0.0724304  
C134     C      0.604920000000     0.884650000000     0.997530000000    -0.0839974  
C135     C      0.586980000000     0.379410000000     0.136800000000    -0.0837995  
C136     C      0.545670000000     0.331660000000     0.133940000000     0.0355642  
C137     C      0.499420000000     0.327340000000     0.136100000000    -0.0858366  
C138     C      0.495190000000     0.369480000000     0.137780000000     0.0750149  
C139     C      0.581290000000     0.420850000000     0.137790000000     0.0770726  
C140     C      0.550160000000     0.287310000000     0.125630000000     0.0338586  
C141     C      0.588950000000     0.291940000000     0.103510000000    -0.0835639  
C142     C      0.589150000000     0.249890000000     0.091220000000     0.0712312  
C143     C      0.514570000000     0.198040000000     0.123200000000     0.0718101  
C144     C      0.513790000000     0.239260000000     0.136790000000    -0.0853252  
C145     C      0.819800000000     0.355150000000     0.469050000000    -0.0865268  
C146     C      0.823480000000     0.317820000000     0.450660000000     0.0359539  
C147     C      0.865840000000     0.331540000000     0.429450000000    -0.0842582  
C148     C      0.905790000000     0.380230000000     0.432360000000     0.074377   
C149     C      0.860750000000     0.402010000000     0.473090000000     0.0784468  
C150     C      0.786660000000     0.265250000000     0.460310000000     0.0334523  
C151     C      0.770280000000     0.253390000000     0.500230000000    -0.0858463  
C152     C      0.730610000000     0.207560000000     0.509230000000     0.0710002  
C153     C      0.726830000000     0.180280000000     0.442160000000     0.0664947  
C154     C      0.766330000000     0.227250000000     0.431470000000    -0.082854   
C155     C      0.205890000000     0.781040000000     0.594870000000    -0.0883811  
C156     C      0.249040000000     0.778950000000     0.602020000000     0.0349945  
C157     C      0.245940000000     0.733000000000     0.602500000000    -0.0880832  
C158     C      0.202290000000     0.691820000000     0.589840000000     0.0750577  
C159     C      0.162210000000     0.738450000000     0.583090000000     0.073624   
C160     C      0.297930000000     0.823920000000     0.600160000000     0.0354276  
C161     C      0.306650000000     0.858430000000     0.568360000000    -0.0891705  
C162     C      0.354490000000     0.894720000000     0.560470000000     0.0716719  
C163     C      0.385380000000     0.865280000000     0.616070000000     0.0742943  
C164     C      0.337860000000     0.828210000000     0.624690000000    -0.0896043  
C165     C      0.823200000000     0.504570000000     0.594830000000    -0.0864784  
C166     C      0.809700000000     0.532790000000     0.568470000000     0.033961   
C167     C      0.837510000000     0.556240000000     0.534450000000    -0.0877436  
C168     C      0.878000000000     0.552050000000     0.527490000000     0.067811   
C169     C      0.864950000000     0.501800000000     0.587250000000     0.069574   
C170     C      0.766010000000     0.537170000000     0.574380000000     0.0351199  
C171     C      0.719740000000     0.495160000000     0.578370000000    -0.085805   
C172     C      0.677800000000     0.499550000000     0.574270000000     0.0745855  
C173     C      0.726800000000     0.586400000000     0.566210000000     0.0740365  
C174     C      0.769330000000     0.583330000000     0.570010000000    -0.0870971  
C175     C      0.361820000000     0.598850000000     0.589820000000    -0.0883549  
C176     C      0.316880000000     0.554770000000     0.584120000000     0.0360177  
C177     C      0.315450000000     0.510220000000     0.594150000000    -0.0892296  
C178     C      0.358410000000     0.510220000000     0.606890000000     0.0758273  
C179     C      0.404240000000     0.597430000000     0.602650000000     0.0752104  
C180     C      0.272250000000     0.554760000000     0.566110000000     0.0344846  
C181     C      0.225380000000     0.519960000000     0.578960000000    -0.0861186  
C182     C      0.183810000000     0.518650000000     0.560090000000     0.0745194  
C183     C      0.233430000000     0.585680000000     0.516210000000     0.0753538  
C184     C      0.275810000000     0.587970000000     0.534370000000    -0.0873982  
C185     C      0.061920000000     0.534650000000     0.719840000000    -0.0852858  
C186     C      0.049110000000     0.565190000000     0.739050000000     0.0341329  
C187     C      0.038130000000     0.596220000000     0.713970000000    -0.0855542  
C188     C      0.038070000000     0.594640000000     0.671120000000     0.0714909  
C189     C      0.061530000000     0.534020000000     0.677030000000     0.0703421  
C190     C      0.046940000000     0.564060000000     0.784810000000     0.0344082  
C191     C      0.029700000000     0.519510000000     0.807170000000    -0.0851455  
C192     C      0.030830000000     0.519120000000     0.850060000000     0.0739164  
C193     C      0.063430000000     0.605520000000     0.849830000000     0.0719045  
C194     C      0.062800000000     0.607230000000     0.806810000000    -0.084857   
C195     C      0.104370000000     0.568350000000     0.214440000000    -0.0857419  
C196     C      0.069470000000     0.532570000000     0.240220000000     0.036247   
C197     C      0.027480000000     0.492970000000     0.222050000000    -0.0882462  
C198     C      0.019900000000     0.491230000000     0.179330000000     0.0718834  
C199     C      0.095960000000     0.565110000000     0.171790000000     0.075288   
C200     C      0.075180000000     0.538240000000     0.285660000000     0.0351062  
C201     C      0.064310000000     0.498060000000     0.312420000000    -0.0853513  
C202     C      0.067590000000     0.504060000000     0.354980000000     0.0750265  
C203     C      0.091640000000     0.588380000000     0.345210000000     0.0748712  
C204     C      0.089510000000     0.583860000000     0.302700000000    -0.0858817  
C205     C      0.849560000000     0.341900000000     0.926810000000    -0.0868521  
C206     C      0.846250000000     0.298510000000     0.943600000000     0.0342211  
C207     C      0.889720000000     0.299910000000     0.958200000000    -0.0851585  
C208     C      0.933670000000     0.345620000000     0.961120000000     0.0715231  
C209     C      0.892980000000     0.386550000000     0.931990000000     0.0753505  
C210     C      0.796940000000     0.255950000000     0.952550000000     0.0339177  
C211     C      0.762260000000     0.265450000000     0.967760000000    -0.0872448  
C212     C      0.716110000000     0.226920000000     0.977020000000     0.0721513  
C213     C      0.736840000000     0.168450000000     0.957460000000     0.0686902  
C214     C      0.784060000000     0.206650000000     0.947880000000    -0.0853882  
C215     C      0.303850000000     0.867100000000     0.076670000000    -0.0891772  
C216     C      0.299940000000     0.829750000000     0.103950000000     0.0358084  
C217     C      0.342810000000     0.835420000000     0.124460000000    -0.0886497  
C218     C      0.388260000000     0.877620000000     0.117090000000     0.073829   
C219     C      0.349750000000     0.908040000000     0.069350000000     0.0732787  
C220     C      0.252510000000     0.782510000000     0.105930000000     0.0322834  
C221     C      0.207920000000     0.781350000000     0.109480000000    -0.0841371  
C222     C      0.163240000000     0.737540000000     0.101730000000     0.0679796  
C223     C      0.206210000000     0.696290000000     0.089140000000     0.0694329  
C224     C      0.251050000000     0.738580000000     0.097930000000    -0.0852619  
C225     C      0.854990000000     0.567830000000     0.098100000000    -0.0873071  
C226     C      0.811420000000     0.521650000000     0.094020000000     0.038208   
C227     C      0.815590000000     0.480060000000     0.088750000000    -0.0905255  
C228     C      0.860720000000     0.485900000000     0.081020000000     0.0821416  
C229     C      0.900360000000     0.571750000000     0.092870000000     0.0778458  
C230     C      0.762170000000     0.517310000000     0.090370000000     0.033371   
C231     C      0.754390000000     0.552840000000     0.106920000000    -0.0857555  
C232     C      0.710830000000     0.552650000000     0.097290000000     0.0703835  
C233     C      0.679500000000     0.479570000000     0.059330000000     0.0692068  
C234     C      0.723350000000     0.479690000000     0.066970000000    -0.0850884  
C235     C      0.269810000000     0.609540000000     0.026350000000    -0.0853023  
C236     C      0.281580000000     0.572310000000     0.027830000000     0.0345689  
C237     C      0.251440000000     0.529560000000     0.004930000000    -0.0840861  
C238     C      0.207890000000     0.522530000000     0.985240000000     0.0701653  
C239     C      0.226350000000     0.601510000000     0.005950000000     0.0740143  
C240     C      0.322840000000     0.575930000000     0.055000000000     0.0385208  
C241     C      0.367940000000     0.620290000000     0.060580000000    -0.0867909  
C242     C      0.407790000000     0.619310000000     0.081460000000     0.0781369  
C243     C      0.357620000000     0.533550000000     0.094450000000     0.0832355  
C244     C      0.317220000000     0.533350000000     0.075310000000    -0.0895443  
C245     C      0.872780000000     0.838900000000     0.607880000000    -0.0865834  
C246     C      0.830870000000     0.839940000000     0.617090000000     0.0345392  
C247     C      0.833920000000     0.885520000000     0.620870000000    -0.0875623  
C248     C      0.877100000000     0.928850000000     0.611270000000     0.0743505  
C249     C      0.915200000000     0.882900000000     0.598150000000     0.0769896  
C250     C      0.782510000000     0.795250000000     0.611140000000     0.0357034  
C251     C      0.759760000000     0.786810000000     0.572030000000    -0.0902149  
C252     C      0.714810000000     0.744330000000     0.564690000000     0.0743295  
C253     C      0.713800000000     0.718350000000     0.634220000000     0.0711896  
C254     C      0.759460000000     0.760730000000     0.642610000000    -0.0888606  
C255     C      0.282850000000     0.260770000000     0.519140000000    -0.0891778  
C256     C      0.280020000000     0.289820000000     0.486430000000     0.0355558  
C257     C      0.240260000000     0.268720000000     0.458090000000    -0.0886415  
C258     C      0.203230000000     0.219590000000     0.463780000000     0.0724834  
C259     C      0.245380000000     0.211970000000     0.523900000000     0.0742359  
C260     C      0.315480000000     0.343280000000     0.486160000000     0.0361016  
C261     C      0.314510000000     0.370790000000     0.517810000000    -0.0896705  
C262     C      0.355770000000     0.415860000000     0.527120000000     0.0787714  
C263     C      0.395850000000     0.411380000000     0.470140000000     0.0781977  
C264     C      0.355140000000     0.364960000000     0.460350000000    -0.0868542  
C265     C      0.796460000000     0.973430000000     0.518890000000    -0.083937   
C266     C      0.803310000000     0.021150000000     0.522180000000     0.0335638  
C267     C      0.847260000000     0.061160000000     0.508960000000    -0.085749   
C268     C      0.883120000000     0.053670000000     0.494630000000     0.0688922  
C269     C      0.834320000000     0.967380000000     0.505440000000     0.0704259  
C270     C      0.765830000000     0.029950000000     0.539510000000     0.0377108  
C271     C      0.763440000000     0.072570000000     0.528590000000    -0.0865617  
C272     C      0.728020000000     0.080100000000     0.544360000000     0.0812489  
C273     C      0.696420000000     0.004640000000     0.581760000000     0.0785626  
C274     C      0.732730000000     0.996810000000     0.567870000000    -0.0889239  
C275     C      0.362070000000     0.088210000000     0.534450000000    -0.0887661  
C276     C      0.323750000000     0.041160000000     0.523320000000     0.0316588  
C277     C      0.334330000000     0.009460000000     0.503930000000    -0.0900318  
C278     C      0.382520000000     0.024220000000     0.497090000000     0.0649219  
C279     C      0.410410000000     0.102060000000     0.526810000000     0.0681767  
C280     C      0.272280000000     0.026310000000     0.528270000000     0.0374771  
C281     C      0.255990000000     0.030460000000     0.565810000000    -0.0911637  
C282     C      0.208410000000     0.022140000000     0.567610000000     0.0772329  
C283     C      0.192910000000     0.002780000000     0.496930000000     0.0787994  
C284     C      0.239350000000     0.009460000000     0.494270000000    -0.0917822  
C285     C      0.064570000000     0.869680000000     0.417990000000    -0.0878203  
C286     C      0.030570000000     0.823170000000     0.433850000000     0.0341823  
C287     C      0.992210000000     0.819300000000     0.455810000000    -0.0852923  
C288     C      0.989850000000     0.861180000000     0.463290000000     0.0782002  
C289     C      0.061100000000     0.911110000000     0.426160000000     0.0731792  
C290     C      0.037040000000     0.779620000000     0.431580000000     0.0304651  
C291     C      0.083780000000     0.784810000000     0.436490000000    -0.0856346  
C292     C      0.088370000000     0.743070000000     0.443630000000     0.0725399  
C293     C      0.002030000000     0.691150000000     0.438160000000     0.0645869  
C294     C      0.996140000000     0.731830000000     0.430030000000    -0.0801543  
C295     C      0.092240000000     0.266250000000     0.503130000000    -0.0888107  
C296     C      0.110570000000     0.295780000000     0.537800000000     0.035652   
C297     C      0.127970000000     0.279660000000     0.572140000000    -0.0886883  
C298     C      0.123360000000     0.232900000000     0.572010000000     0.0730278  
C299     C      0.087030000000     0.219900000000     0.504540000000     0.0761384  
C300     C      0.104930000000     0.339540000000     0.538300000000     0.0340331  
C301     C      0.113650000000     0.368530000000     0.502680000000    -0.0888395  
C302     C      0.092150000000     0.397340000000     0.496400000000     0.0752272  
C303     C      0.060960000000     0.376880000000     0.562960000000     0.070455   
C304     C      0.080320000000     0.345570000000     0.569630000000    -0.0865319  
C305     C      0.997400000000     0.978860000000     0.812430000000    -0.0902977  
C306     C      0.999870000000     0.019050000000     0.789560000000     0.042994   
C307     C      0.001190000000     0.057300000000     0.810840000000    -0.0928436  
C308     C      0.003140000000     0.056420000000     0.853540000000     0.0750162  
C309     C      0.999820000000     0.979380000000     0.855360000000     0.0774626  
C310     C      0.005480000000     0.023590000000     0.744310000000     0.0271662  
C311     C      0.033460000000     0.007060000000     0.726400000000    -0.083687   
C312     C      0.043470000000     0.016720000000     0.684960000000     0.0694237  
C313     C      0.998040000000     0.057900000000     0.677800000000     0.0735802  
C314     C      0.986730000000     0.048260000000     0.719080000000    -0.0823436  
C315     C      0.984210000000     0.007790000000     0.315420000000    -0.0824339  
C316     C      0.026230000000     0.043720000000     0.295580000000     0.0318559  
C317     C      0.061530000000     0.083840000000     0.318650000000    -0.0877505  
C318     C      0.055330000000     0.086750000000     0.359920000000     0.0702781  
C319     C      0.980000000000     0.011040000000     0.357430000000     0.0756531  
C320     C      0.033120000000     0.039990000000     0.251230000000     0.036469   
C321     C      0.010660000000     0.994140000000     0.231970000000    -0.0891381  
C322     C      0.012710000000     0.991980000000     0.189600000000     0.0727157  
C323     C      0.064340000000     0.078690000000     0.185260000000     0.0748676  
C324     C      0.061700000000     0.082410000000     0.227240000000    -0.08601    
C325     C      0.697550000000     0.796600000000     0.059930000000    -0.0838112  
C326     C      0.739920000000     0.795540000000     0.050810000000     0.0329319  
C327     C      0.745520000000     0.756890000000     0.068130000000    -0.0842593  
C328     C      0.708210000000     0.718860000000     0.090250000000     0.0671338  
C329     C      0.661040000000     0.758040000000     0.083000000000     0.0721215  
C330     C      0.779220000000     0.834970000000     0.025100000000     0.0338435  
C331     C      0.788500000000     0.883570000000     0.024150000000    -0.086469   
C332     C      0.830710000000     0.921320000000     0.006560000000     0.068049   
C333     C      0.852830000000     0.864310000000     0.986590000000     0.0731858  
C334     C      0.810270000000     0.825310000000     0.003190000000    -0.0851694  
C335     C      0.234320000000     0.264100000000     0.068210000000    -0.0867639  
C336     C      0.272580000000     0.258260000000     0.055070000000     0.0338694  
C337     C      0.262160000000     0.211030000000     0.045770000000    -0.0875537  
C338     C      0.213870000000     0.172230000000     0.045210000000     0.0734827  
C339     C      0.186110000000     0.224020000000     0.067630000000     0.0715394  
C340     C      0.321360000000     0.301710000000     0.046450000000     0.0327788  
C341     C      0.323520000000     0.343220000000     0.026950000000    -0.0882839  
C342     C      0.368630000000     0.385000000000     0.020340000000     0.0698101  
C343     C      0.410650000000     0.344800000000     0.047940000000     0.0698237  
C344     C      0.365580000000     0.301800000000     0.055220000000    -0.0868798  
C345     C      0.783660000000     0.139820000000     0.080700000000    -0.0850887  
C346     C      0.792100000000     0.106950000000     0.105550000000     0.0349849  
C347     C      0.753230000000     0.070890000000     0.128140000000    -0.0874204  
C348     C      0.706400000000     0.064770000000     0.122260000000     0.0755765  
C349     C      0.736190000000     0.133080000000     0.076000000000     0.074812   
C350     C      0.837810000000     0.104440000000     0.103260000000     0.0343702  
C351     C      0.833270000000     0.058300000000     0.098970000000    -0.0875043  
C352     C      0.874350000000     0.054410000000     0.093870000000     0.0754992  
C353     C      0.926310000000     0.140940000000     0.098650000000     0.067694   
C354     C      0.885180000000     0.146330000000     0.103160000000    -0.0847898  
C355     C      0.250860000000     0.090790000000     0.959780000000    -0.0899017  
C356     C      0.265840000000     0.063840000000     0.986000000000     0.0345717  
C357     C      0.230880000000     0.025910000000     0.010360000000    -0.0886728  
C358     C      0.182340000000     0.015360000000     0.007950000000     0.0742419  
C359     C      0.201730000000     0.078900000000     0.957800000000     0.0745613  
C360     C      0.316860000000     0.073070000000     0.986900000000     0.031459   
C361     C      0.358090000000     0.120850000000     0.988840000000    -0.0858471  
C362     C      0.405500000000     0.127250000000     0.992400000000     0.0675673  
C363     C      0.371790000000     0.040690000000     0.990000000000     0.0644874  
C364     C      0.324450000000     0.033030000000     0.986640000000    -0.0870234  
C365     C      0.962760000000     0.707430000000     0.016290000000    -0.0885524  
C366     C      0.997080000000     0.756980000000     0.008500000000     0.03969    
C367     C      0.039370000000     0.767970000000     0.988220000000    -0.0914612  
C368     C      0.049200000000     0.730530000000     0.980690000000     0.0759376  
C369     C      0.973500000000     0.670920000000     0.007820000000     0.0810083  
C370     C      0.991680000000     0.797260000000     0.024940000000     0.0341059  
C371     C      0.946030000000     0.794570000000     0.026150000000    -0.0878014  
C372     C      0.943620000000     0.834590000000     0.040730000000     0.068735   
C373     C      0.029540000000     0.877790000000     0.054920000000     0.0635893  
C374     C      0.033210000000     0.838790000000     0.041210000000    -0.0898769  
C375     C      0.999540000000     0.235950000000     0.021940000000    -0.083492   
C376     C      0.046940000000     0.277940000000     0.024230000000     0.0345216  
C377     C      0.085450000000     0.273840000000     0.009910000000    -0.0862607  
C378     C      0.076630000000     0.229080000000     0.995280000000     0.0809913  
C379     C      0.992490000000     0.191020000000     0.008890000000     0.0820339  
C380     C      0.055660000000     0.325690000000     0.040330000000     0.0372968  
C381     C      0.022770000000     0.326220000000     0.066730000000    -0.0907553  
C382     C      0.025350000000     0.370560000000     0.074770000000     0.0759687  
C383     C      0.098120000000     0.415440000000     0.038780000000     0.080032   
C384     C      0.095500000000     0.371520000000     0.028380000000    -0.0856916  
Co1      Co     0.021560000000     0.086240000000     0.054340000000     1.05157    
Co2      Co     0.021680000000     0.976210000000     0.997410000000     1.05006    
Co3      Co     0.074540000000     0.088520000000     0.975280000000     1.15473    
Co4      Co     0.959040000000     0.993180000000     0.057510000000     0.958099   
Co5      Co     0.091740000000     0.059550000000     0.469840000000     1.15627    
Co6      Co     0.000420000000     0.063900000000     0.543150000000     0.932596   
Co7      Co     0.986190000000     0.994030000000     0.502690000000     1.08493    
Co8      Co     0.109430000000     0.076380000000     0.565940000000     1.10273    
Co9      Co     0.066250000000     0.512450000000     0.987140000000     1.13484    
Co10     Co     0.045320000000     0.589420000000     0.048600000000     1.07643    
Co11     Co     0.976510000000     0.479090000000     0.041250000000     1.15605    
Co12     Co     0.097150000000     0.611010000000     0.989440000000     0.840966   
Co13     Co     0.043420000000     0.498270000000     0.490260000000     1.08343    
Co14     Co     0.021280000000     0.598460000000     0.529610000000     1.09936    
Co15     Co     0.000850000000     0.488790000000     0.552270000000     0.876897   
Co16     Co     0.111630000000     0.612490000000     0.481160000000     1.12282    
Co17     Co     0.475170000000     0.051720000000     0.065390000000     1.10712    
Co18     Co     0.592460000000     0.072730000000     0.013330000000     1.06244    
Co19     Co     0.559240000000     0.131080000000     0.009910000000     0.904336   
Co20     Co     0.544030000000     0.008550000000     0.092170000000     1.11037    
Co21     Co     0.481170000000     0.030070000000     0.565840000000     1.11006    
Co22     Co     0.594440000000     0.057570000000     0.510880000000     1.06017    
Co23     Co     0.568220000000     0.118600000000     0.520950000000     0.906715   
Co24     Co     0.545140000000     0.982740000000     0.587090000000     1.13287    
Co25     Co     0.555520000000     0.506690000000     0.055870000000     1.11844    
Co26     Co     0.545920000000     0.606170000000     0.094450000000     1.1069     
Co27     Co     0.466080000000     0.495480000000     0.096000000000     1.15746    
Co28     Co     0.607220000000     0.604350000000     0.050270000000     0.833737   
Co29     Co     0.540150000000     0.505010000000     0.529950000000     1.05239    
Co30     Co     0.553690000000     0.609850000000     0.611500000000     1.1556     
Co31     Co     0.484850000000     0.485710000000     0.609950000000     1.19834    
Co32     Co     0.591400000000     0.599270000000     0.525880000000     0.970941   
H1       H      0.628850000000     0.610720000000     0.797120000000     0.0520738  
H2       H      0.615780000000     0.612610000000     0.723700000000     0.0242117  
H3       H      0.490230000000     0.467350000000     0.728390000000     0.020601   
H4       H      0.498150000000     0.466120000000     0.801750000000     0.0521968  
H5       H      0.600620000000     0.620710000000     0.854320000000     0.0518776  
H6       H      0.603710000000     0.623330000000     0.927730000000     0.0276576  
H7       H      0.529810000000     0.465760000000     0.935900000000     0.0320861  
H8       H      0.531050000000     0.461390000000     0.862630000000     0.052328   
H9       H      0.624760000000     0.584430000000     0.280840000000     0.0537659  
H10      H      0.609170000000     0.597410000000     0.209030000000     0.0348138  
H11      H      0.460350000000     0.479680000000     0.215820000000     0.0231262  
H12      H      0.474570000000     0.466440000000     0.287750000000     0.0526917  
H13      H      0.596280000000     0.600180000000     0.342800000000     0.0540843  
H14      H      0.600230000000     0.595900000000     0.416380000000     0.0248129  
H15      H      0.524480000000     0.438080000000     0.414260000000     0.02948    
H16      H      0.520220000000     0.441160000000     0.339350000000     0.0519734  
H17      H      0.615980000000     0.858550000000     0.466040000000     0.052345   
H18      H      0.626370000000     0.939820000000     0.478720000000     0.0281345  
H19      H      0.473690000000     0.871800000000     0.499650000000     0.0293182  
H20      H      0.461660000000     0.791620000000     0.485400000000     0.0526391  
H21      H      0.506870000000     0.765790000000     0.545040000000     0.0525753  
H22      H      0.505370000000     0.690840000000     0.565960000000     0.0215408  
H23      H      0.555600000000     0.682900000000     0.449980000000     0.0245609  
H24      H      0.558880000000     0.760650000000     0.427900000000     0.0531946  
H25      H      0.620040000000     0.301190000000     0.600550000000     0.0526836  
H26      H      0.625950000000     0.227400000000     0.596230000000     0.0272925  
H27      H      0.475750000000     0.137430000000     0.626440000000     0.0212899  
H28      H      0.469240000000     0.210940000000     0.631700000000     0.0510259  
H29      H      0.532970000000     0.299240000000     0.542430000000     0.0551329  
H30      H      0.520760000000     0.369200000000     0.529300000000     0.0357553  
H31      H      0.527450000000     0.390700000000     0.658320000000     0.0269383  
H32      H      0.538660000000     0.319830000000     0.672250000000     0.0526046  
H33      H      0.580230000000     0.024910000000     0.779980000000     0.0537328  
H34      H      0.585200000000     0.021570000000     0.706630000000     0.0274192  
H35      H      0.454620000000     0.029730000000     0.685400000000     0.0231363  
H36      H      0.448780000000     0.033280000000     0.758740000000     0.0513616  
H37      H      0.495380000000     0.091480000000     0.815990000000     0.0521605  
H38      H      0.502780000000     0.103930000000     0.889380000000     0.0273317  
H39      H      0.533370000000     0.986570000000     0.910360000000     0.0328999  
H40      H      0.526310000000     0.973240000000     0.837050000000     0.0530453  
H41      H      0.580080000000     0.053820000000     0.277920000000     0.0547767  
H42      H      0.584880000000     0.055560000000     0.204500000000     0.0267011  
H43      H      0.449950000000     0.056260000000     0.187690000000     0.0215372  
H44      H      0.445020000000     0.055940000000     0.262200000000     0.0518808  
H45      H      0.508050000000     0.119070000000     0.325240000000     0.052911   
H46      H      0.521350000000     0.123100000000     0.399580000000     0.0266875  
H47      H      0.523570000000     0.988020000000     0.402130000000     0.0328549  
H48      H      0.511190000000     0.983560000000     0.327970000000     0.0540991  
H49      H      0.631900000000     0.816610000000     0.976920000000     0.0487478  
H50      H      0.630180000000     0.739070000000     0.989010000000     0.026316   
H51      H      0.480880000000     0.668980000000     0.020540000000     0.0289904  
H52      H      0.481320000000     0.744430000000     0.013240000000     0.0495102  
H53      H      0.481010000000     0.809760000000     0.997670000000     0.0495578  
H54      H      0.486090000000     0.884850000000     0.014830000000     0.0294648  
H55      H      0.641390000000     0.962950000000     0.006190000000     0.0282841  
H56      H      0.639520000000     0.886410000000     0.994500000000     0.0487354  
H57      H      0.466010000000     0.291880000000     0.134060000000     0.0489093  
H58      H      0.458500000000     0.363990000000     0.137560000000     0.0224106  
H59      H      0.614140000000     0.456970000000     0.138210000000     0.0294271  
H60      H      0.623730000000     0.385230000000     0.137080000000     0.0519545  
H61      H      0.618040000000     0.327730000000     0.093690000000     0.0508654  
H62      H      0.618970000000     0.255610000000     0.072890000000     0.0274516  
H63      H      0.484630000000     0.161810000000     0.131340000000     0.0226067  
H64      H      0.483940000000     0.233060000000     0.155180000000     0.0491868  
H65      H      0.869910000000     0.304140000000     0.414180000000     0.052718   
H66      H      0.939910000000     0.388650000000     0.419410000000     0.0304856  
H67      H      0.858480000000     0.428210000000     0.491920000000     0.0236967  
H68      H      0.786920000000     0.346940000000     0.484040000000     0.0534839  
H69      H      0.786700000000     0.280280000000     0.524360000000     0.0539468  
H70      H      0.717740000000     0.201270000000     0.540120000000     0.0345686  
H71      H      0.709380000000     0.152500000000     0.418760000000     0.0274807  
H72      H      0.778880000000     0.234440000000     0.400530000000     0.0515021  
H73      H      0.278150000000     0.729520000000     0.608280000000     0.0520531  
H74      H      0.202230000000     0.657470000000     0.587420000000     0.0275582  
H75      H      0.130370000000     0.741840000000     0.574420000000     0.0226245  
H76      H      0.206780000000     0.815930000000     0.595160000000     0.0512585  
H77      H      0.276980000000     0.855810000000     0.548070000000     0.0511842  
H78      H      0.359640000000     0.919960000000     0.534910000000     0.0212037  
H79      H      0.415490000000     0.867060000000     0.635260000000     0.0233392  
H80      H      0.332540000000     0.802070000000     0.649510000000     0.0515414  
H81      H      0.827650000000     0.577380000000     0.512790000000     0.0525522  
H82      H      0.898150000000     0.571060000000     0.500540000000     0.0273841  
H83      H      0.875100000000     0.480440000000     0.608410000000     0.0254109  
H84      H      0.802140000000     0.485480000000     0.621290000000     0.0520589  
H85      H      0.715720000000     0.458860000000     0.581870000000     0.0525513  
H86      H      0.642430000000     0.465900000000     0.575500000000     0.0322344  
H87      H      0.730960000000     0.622660000000     0.561140000000     0.0276948  
H88      H      0.804620000000     0.616780000000     0.567520000000     0.051588   
H89      H      0.281770000000     0.475150000000     0.590500000000     0.0507894  
H90      H      0.355550000000     0.474750000000     0.613490000000     0.0208714  
H91      H      0.438420000000     0.632190000000     0.605470000000     0.0212101  
H92      H      0.364510000000     0.634290000000     0.583670000000     0.0503259  
H93      H      0.220650000000     0.493870000000     0.603650000000     0.0514675  
H94      H      0.148380000000     0.491120000000     0.571090000000     0.0342166  
H95      H      0.237920000000     0.611970000000     0.491690000000     0.0236165  
H96      H      0.311070000000     0.614970000000     0.522850000000     0.0519682  
H97      H      0.028090000000     0.620560000000     0.727210000000     0.0509109  
H98      H      0.028100000000     0.618350000000     0.653020000000     0.0235193  
H99      H      0.070890000000     0.509090000000     0.663780000000     0.0286723  
H100     H      0.072110000000     0.511040000000     0.737760000000     0.0521889  
H101     H      0.015690000000     0.484920000000     0.791670000000     0.0525458  
H102     H      0.018150000000     0.483880000000     0.865890000000     0.032439   
H103     H      0.077480000000     0.640030000000     0.865550000000     0.0279963  
H104     H      0.076380000000     0.642570000000     0.791060000000     0.0513363  
H105     H      0.999500000000     0.464530000000     0.240750000000     0.0553189  
H106     H      0.986130000000     0.460720000000     0.166680000000     0.0253824  
H107     H      0.123440000000     0.594220000000     0.153120000000     0.0311734  
H108     H      0.137720000000     0.599210000000     0.227160000000     0.0532614  
H109     H      0.053300000000     0.462160000000     0.300560000000     0.052226   
H110     H      0.058560000000     0.472000000000     0.374580000000     0.0341306  
H111     H      0.102150000000     0.624310000000     0.356810000000     0.0277007  
H112     H      0.097700000000     0.615780000000     0.283230000000     0.0538167  
H113     H      0.888930000000     0.267060000000     0.970930000000     0.0499822  
H114     H      0.965630000000     0.346530000000     0.976330000000     0.0285537  
H115     H      0.892840000000     0.420160000000     0.922830000000     0.0270084  
H116     H      0.817420000000     0.342160000000     0.913510000000     0.0533831  
H117     H      0.770860000000     0.302770000000     0.973220000000     0.0525387  
H118     H      0.690920000000     0.236730000000     0.988620000000     0.0285491  
H119     H      0.727870000000     0.130720000000     0.953370000000     0.0328484  
H120     H      0.809950000000     0.197690000000     0.936580000000     0.0520722  
H121     H      0.341310000000     0.807040000000     0.145540000000     0.0520523  
H122     H      0.420640000000     0.880670000000     0.133340000000     0.0229845  
H123     H      0.350890000000     0.935540000000     0.047360000000     0.0212542  
H124     H      0.271810000000     0.863720000000     0.059570000000     0.0514811  
H125     H      0.207660000000     0.814650000000     0.116050000000     0.0503962  
H126     H      0.129530000000     0.738510000000     0.102170000000     0.029699   
H127     H      0.206970000000     0.663790000000     0.080600000000     0.0301104  
H128     H      0.284520000000     0.737730000000     0.095090000000     0.0507683  
H129     H      0.783990000000     0.443180000000     0.088310000000     0.051342   
H130     H      0.861980000000     0.453130000000     0.074160000000     0.0120213  
H131     H      0.933070000000     0.608010000000     0.093880000000     0.0266029  
H132     H      0.854370000000     0.601360000000     0.102460000000     0.0509189  
H133     H      0.782010000000     0.581510000000     0.126460000000     0.0509803  
H134     H      0.707040000000     0.581820000000     0.109760000000     0.0316052  
H135     H      0.651060000000     0.450710000000     0.040270000000     0.0323002  
H136     H      0.727060000000     0.451600000000     0.052600000000     0.0507463  
H137     H      0.260370000000     0.500670000000     0.003540000000     0.0516714  
H138     H      0.184260000000     0.487990000000     0.969790000000     0.0280555  
H139     H      0.217640000000     0.630600000000     0.007390000000     0.0286116  
H140     H      0.292280000000     0.643460000000     0.042860000000     0.0502634  
H141     H      0.373440000000     0.654600000000     0.046660000000     0.0499106  
H142     H      0.443220000000     0.652880000000     0.082770000000     0.0252225  
H143     H      0.352800000000     0.498680000000     0.106670000000     0.0125745  
H144     H      0.282370000000     0.499070000000     0.074440000000     0.0527423  
H145     H      0.801870000000     0.887380000000     0.627650000000     0.0517222  
H146     H      0.877120000000     0.963340000000     0.611760000000     0.025549   
H147     H      0.945950000000     0.880510000000     0.588260000000     0.0337747  
H148     H      0.871360000000     0.804090000000     0.604480000000     0.0540588  
H149     H      0.776930000000     0.812900000000     0.547060000000     0.0564269  
H150     H      0.698670000000     0.739360000000     0.533730000000     0.0250414  
H151     H      0.696560000000     0.692080000000     0.659070000000     0.025608   
H152     H      0.776540000000     0.766400000000     0.673200000000     0.0525193  
H153     H      0.236830000000     0.290500000000     0.432750000000     0.0523771  
H154     H      0.172210000000     0.204680000000     0.441770000000     0.0262242  
H155     H      0.248460000000     0.191020000000     0.550130000000     0.0212959  
H156     H      0.313210000000     0.276320000000     0.541750000000     0.0543438  
H157     H      0.283970000000     0.355370000000     0.537810000000     0.0532904  
H158     H      0.355770000000     0.434050000000     0.554390000000     0.0199062  
H159     H      0.428260000000     0.425320000000     0.452490000000     0.0283738  
H160     H      0.356610000000     0.344470000000     0.435370000000     0.0531636  
H161     H      0.855630000000     0.098870000000     0.511060000000     0.050967   
H162     H      0.916550000000     0.086370000000     0.485410000000     0.0281552  
H163     H      0.828940000000     0.930460000000     0.505480000000     0.0298978  
H164     H      0.762610000000     0.940920000000     0.527300000000     0.0495541  
H165     H      0.787370000000     0.099620000000     0.506720000000     0.0545323  
H166     H      0.727440000000     0.113140000000     0.534510000000     0.0293299  
H167     H      0.670060000000     0.976830000000     0.602020000000     0.0214318  
H168     H      0.734090000000     0.964500000000     0.578960000000     0.0503765  
H169     H      0.305500000000     0.973160000000     0.494380000000     0.0495698  
H170     H      0.389290000000     0.998210000000     0.482330000000     0.0294729  
H171     H      0.439700000000     0.138030000000     0.536620000000     0.0247831  
H172     H      0.354670000000     0.114050000000     0.548590000000     0.0513906  
H173     H      0.280410000000     0.042020000000     0.592960000000     0.0506909  
H174     H      0.197770000000     0.029020000000     0.596280000000     0.0198716  
H175     H      0.169310000000     0.993100000000     0.469230000000     0.018874   
H176     H      0.250470000000     0.004810000000     0.464970000000     0.0520176  
H177     H      0.965360000000     0.784520000000     0.469260000000     0.0515839  
H178     H      0.960290000000     0.856290000000     0.481570000000     0.0330919  
H179     H      0.088970000000     0.946660000000     0.414540000000     0.0206849  
H180     H      0.094380000000     0.874350000000     0.400270000000     0.0500718  
H181     H      0.116550000000     0.820900000000     0.437760000000     0.0499529  
H182     H      0.124980000000     0.748780000000     0.449530000000     0.02394    
H183     H      0.969210000000     0.654980000000     0.438900000000     0.0300381  
H184     H      0.959410000000     0.725830000000     0.424660000000     0.0498788  
H185     H      0.142920000000     0.301960000000     0.599280000000     0.0500419  
H186     H      0.134590000000     0.219920000000     0.599630000000     0.0229587  
H187     H      0.070380000000     0.197190000000     0.477680000000     0.0349649  
H188     H      0.078360000000     0.277130000000     0.475870000000     0.0539055  
H189     H      0.133630000000     0.365820000000     0.478240000000     0.0527718  
H190     H      0.097940000000     0.417300000000     0.467350000000     0.0342969  
H191     H      0.040340000000     0.379580000000     0.586880000000     0.0244444  
H192     H      0.072840000000     0.323610000000     0.597660000000     0.0513335  
H193     H      0.003410000000     0.089330000000     0.794870000000     0.0523012  
H194     H      0.005760000000     0.087770000000     0.868470000000     0.0276688  
H195     H      0.999710000000     0.948570000000     0.871910000000     0.0236111  
H196     H      0.994950000000     0.947730000000     0.797390000000     0.052924   
H197     H      0.049390000000     0.988460000000     0.744520000000     0.0498894  
H198     H      0.066070000000     0.004010000000     0.672700000000     0.0282177  
H199     H      0.983510000000     0.077800000000     0.659580000000     0.0250977  
H200     H      0.963980000000     0.060800000000     0.731170000000     0.0506766  
H201     H      0.094980000000     0.112500000000     0.305690000000     0.0494374  
H202     H      0.084340000000     0.118260000000     0.376280000000     0.0219918  
H203     H      0.948120000000     0.981620000000     0.372010000000     0.0292143  
H204     H      0.954720000000     0.976940000000     0.298950000000     0.0521021  
H205     H      0.990300000000     0.959940000000     0.249090000000     0.0540074  
H206     H      0.992370000000     0.956050000000     0.175570000000     0.0295153  
H207     H      0.084820000000     0.112750000000     0.167830000000     0.0333427  
H208     H      0.079990000000     0.118960000000     0.239890000000     0.0519692  
H209     H      0.778460000000     0.755380000000     0.064470000000     0.050023   
H210     H      0.713730000000     0.688910000000     0.101600000000     0.0237396  
H211     H      0.627900000000     0.758980000000     0.087470000000     0.0315615  
H212     H      0.691250000000     0.825710000000     0.047970000000     0.048677   
H213     H      0.765540000000     0.893500000000     0.039430000000     0.0488055  
H214     H      0.837720000000     0.958670000000     0.008980000000     0.0272398  
H215     H      0.877770000000     0.855630000000     0.972910000000     0.0223357  
H216     H      0.803310000000     0.788090000000     0.000520000000     0.0496868  
H217     H      0.290420000000     0.204540000000     0.036020000000     0.0508112  
H218     H      0.207160000000     0.136630000000     0.035770000000     0.0302003  
H219     H      0.156960000000     0.230420000000     0.075150000000     0.0274985  
H220     H      0.241190000000     0.299960000000     0.076840000000     0.0498428  
H221     H      0.290440000000     0.343900000000     0.017390000000     0.0509448  
H222     H      0.368430000000     0.417080000000     0.006640000000     0.0299765  
H223     H      0.444200000000     0.344970000000     0.057300000000     0.0279047  
H224     H      0.365490000000     0.269800000000     0.069190000000     0.0491345  
H225     H      0.758310000000     0.045520000000     0.148650000000     0.0522105  
H226     H      0.677040000000     0.034690000000     0.138800000000     0.0230627  
H227     H      0.730650000000     0.157710000000     0.054910000000     0.0315528  
H228     H      0.812590000000     0.168390000000     0.062810000000     0.0513719  
H229     H      0.797650000000     0.024900000000     0.098130000000     0.0521157  
H230     H      0.867900000000     0.017470000000     0.090060000000     0.0234171  
H231     H      0.962300000000     0.173810000000     0.098430000000     0.0283865  
H232     H      0.890400000000     0.182810000000     0.106430000000     0.0489147  
H233     H      0.240990000000     0.004450000000     0.031380000000     0.0501803  
H234     H      0.156620000000     0.985800000000     0.027440000000     0.0252998  
H235     H      0.191540000000     0.100500000000     0.937000000000     0.0212469  
H236     H      0.276630000000     0.120130000000     0.940230000000     0.0515168  
H237     H      0.353720000000     0.152860000000     0.988930000000     0.0495935  
H238     H      0.436600000000     0.164410000000     0.995060000000     0.0252675  
H239     H      0.375470000000     0.008210000000     0.990000000000     0.0299284  
H240     H      0.293810000000     0.995630000000     0.984080000000     0.0498633  
H241     H      0.066030000000     0.805640000000     0.980000000000     0.0508587  
H242     H      0.083700000000     0.740810000000     0.967470000000     0.0245162  
H243     H      0.946990000000     0.633190000000     0.016180000000     0.0310292  
H244     H      0.929310000000     0.696970000000     0.031340000000     0.0519165  
H245     H      0.912700000000     0.762650000000     0.014750000000     0.0496785  
H246     H      0.908290000000     0.832300000000     0.040040000000     0.0230291  
H247     H      0.063120000000     0.909780000000     0.066160000000     0.0290322  
H248     H      0.068810000000     0.841600000000     0.043110000000     0.051352   
H249     H      0.122800000000     0.304310000000     0.010940000000     0.0499092  
H250     H      0.108040000000     0.227840000000     0.985460000000     0.0251269  
H251     H      0.955840000000     0.159030000000     0.009120000000     0.0250477  
H252     H      0.967720000000     0.237140000000     0.030420000000     0.0484924  
H253     H      0.993510000000     0.292560000000     0.079640000000     0.0518203  
H254     H      0.996700000000     0.369060000000     0.092320000000     0.0207407  
H255     H      0.127540000000     0.449710000000     0.026980000000     0.0304084  
H256     H      0.122930000000     0.374140000000     0.008810000000     0.0517124  
N1       N      0.551400000000     0.540750000000     0.721120000000    -0.224502   
N2       N      0.566920000000     0.544780000000     0.936780000000    -0.21091    
N3       N      0.533450000000     0.540120000000     0.207400000000    -0.206475   
N4       N      0.561790000000     0.516590000000     0.420620000000    -0.196346   
N5       N      0.551320000000     0.910830000000     0.492220000000    -0.203407   
N6       N      0.531250000000     0.681900000000     0.509800000000    -0.205578   
N7       N      0.550530000000     0.176940000000     0.608810000000    -0.200886   
N8       N      0.523300000000     0.385110000000     0.592810000000    -0.204706   
N9       N      0.520130000000     0.025040000000     0.690540000000    -0.20297    
N10      N      0.520240000000     0.047290000000     0.905100000000    -0.202359   
N11      N      0.517200000000     0.055000000000     0.190610000000    -0.20693    
N12      N      0.525050000000     0.056740000000     0.405980000000    -0.204342   
N13      N      0.556470000000     0.699310000000     0.008520000000    -0.2025     
N14      N      0.564240000000     0.928970000000     0.013150000000    -0.20241    
N15      N      0.535590000000     0.416010000000     0.135740000000    -0.201152   
N16      N      0.551000000000     0.203240000000     0.099260000000    -0.198726   
N17      N      0.904200000000     0.413140000000     0.457360000000    -0.203      
N18      N      0.707310000000     0.172210000000     0.479930000000    -0.18835    
N19      N      0.162180000000     0.695650000000     0.576990000000    -0.209076   
N20      N      0.393570000000     0.897630000000     0.583730000000    -0.211019   
N21      N      0.892200000000     0.525680000000     0.553890000000    -0.204576   
N22      N      0.681350000000     0.544580000000     0.566160000000    -0.204131   
N23      N      0.402910000000     0.553290000000     0.609090000000    -0.215878   
N24      N      0.187770000000     0.551210000000     0.528900000000    -0.20749    
N25      N      0.048390000000     0.562780000000     0.652710000000    -0.198741   
N26      N      0.048990000000     0.561990000000     0.871360000000    -0.203503   
N27      N      0.053230000000     0.527740000000     0.154400000000    -0.20051    
N28      N      0.080450000000     0.548750000000     0.371250000000    -0.202129   
N29      N      0.933380000000     0.388470000000     0.951690000000    -0.201434   
N30      N      0.703220000000     0.178710000000     0.971930000000    -0.188952   
N31      N      0.391760000000     0.913210000000     0.089160000000    -0.20885    
N32      N      0.162930000000     0.696600000000     0.088730000000    -0.186664   
N33      N      0.902130000000     0.531630000000     0.081120000000    -0.206777   
N34      N      0.674300000000     0.517060000000     0.072790000000    -0.186      
N35      N      0.194020000000     0.556980000000     0.988080000000    -0.185546   
N36      N      0.403180000000     0.575100000000     0.094150000000    -0.207501   
N37      N      0.915840000000     0.926940000000     0.596850000000    -0.203306   
N38      N      0.691880000000     0.710290000000     0.595450000000    -0.208808   
N39      N      0.205290000000     0.191880000000     0.496990000000    -0.210496   
N40      N      0.397330000000     0.433700000000     0.505600000000    -0.208224   
N41      N      0.878080000000     0.007610000000     0.495130000000    -0.18465    
N42      N      0.692620000000     0.044760000000     0.568360000000    -0.208701   
N43      N      0.420280000000     0.069390000000     0.509600000000    -0.209852   
N44      N      0.179160000000     0.012720000000     0.532460000000    -0.208903   
N45      N      0.025020000000     0.907020000000     0.449920000000    -0.206501   
N46      N      0.047610000000     0.697030000000     0.447100000000    -0.207135   
N47      N      0.099730000000     0.202350000000     0.539490000000    -0.203376   
N48      N      0.064430000000     0.399990000000     0.525640000000    -0.19046    
N49      N      0.004780000000     0.018920000000     0.875680000000    -0.206118   
N50      N      0.026950000000     0.043020000000     0.661090000000    -0.203877   
N51      N      0.016140000000     0.049520000000     0.379710000000    -0.209392   
N52      N      0.037090000000     0.034230000000     0.166210000000    -0.204163   
N53      N      0.665210000000     0.718060000000     0.095860000000    -0.18789    
N54      N      0.865070000000     0.912290000000     0.991730000000    -0.198568   
N55      N      0.175840000000     0.179460000000     0.053310000000    -0.20288    
N56      N      0.411730000000     0.386960000000     0.033380000000    -0.201691   
N57      N      0.697340000000     0.093910000000     0.094700000000    -0.203898   
N58      N      0.920570000000     0.095280000000     0.092860000000    -0.189857   
N59      N      0.167780000000     0.041510000000     0.981770000000    -0.208786   
N60      N      0.412020000000     0.087240000000     0.994000000000    -0.206139   
N61      N      0.017890000000     0.682890000000     0.992900000000    -0.207138   
N62      N      0.985610000000     0.876810000000     0.052800000000    -0.206683   
N63      N      0.031060000000     0.187390000000     0.996780000000    -0.209465   
N64      N      0.060420000000     0.414210000000     0.057950000000    -0.208205   
O1       O      0.993540000000     0.104230000000     0.007170000000    -0.426736   
O2       O      0.947560000000     0.940900000000     0.986280000000    -0.405586   
O3       O      0.025280000000     0.062820000000     0.934140000000    -0.468435   
O4       O      0.949230000000     0.046310000000     0.072690000000    -0.487759   
O5       O      0.020800000000     0.991150000000     0.938190000000    -0.433036   
O6       O      0.003620000000     0.123520000000     0.085250000000    -0.392625   
O7       O      0.924490000000     0.988990000000     0.008330000000    -0.430891   
O8       O      0.062090000000     0.140190000000     0.979940000000    -0.477995   
O9       O      0.048450000000     0.072010000000     0.103040000000    -0.435418   
O10      O      0.089940000000     0.001110000000     0.005020000000    -0.44656    
O11      O      0.124050000000     0.114420000000     0.014920000000    -0.478945   
O12      O      0.948640000000     0.923700000000     0.056130000000    -0.391802   
O13      O      0.024300000000     0.959380000000     0.052550000000    -0.444165   
O14      O      0.090930000000     0.144090000000     0.052770000000    -0.385423   
O15      O      0.990470000000     0.996350000000     0.109040000000    -0.44082    
O16      O      0.106010000000     0.054930000000     0.957190000000    -0.465788   
O17      O      0.027200000000     0.038040000000     0.020640000000    -0.537437   
O18      O      0.053580000000     0.080520000000     0.440990000000    -0.468739   
O19      O      0.045360000000     0.124070000000     0.521370000000    -0.428491   
O20      O      0.918160000000     0.962570000000     0.492910000000    -0.387771   
O21      O      0.166620000000     0.120130000000     0.535170000000    -0.456831   
O22      O      0.961220000000     0.044800000000     0.492460000000    -0.463747   
O23      O      0.129680000000     0.126860000000     0.480230000000    -0.471516   
O24      O      0.103020000000     0.135960000000     0.569080000000    -0.422823   
O25      O      0.988300000000     0.011130000000     0.441920000000    -0.397593   
O26      O      0.134860000000     0.040870000000     0.496380000000    -0.470476   
O27      O      0.949570000000     0.005350000000     0.569810000000    -0.449638   
O28      O      0.994730000000     0.943500000000     0.487810000000    -0.434409   
O29      O      0.063300000000     0.037960000000     0.604890000000    -0.448779   
O30      O      0.027320000000     0.081010000000     0.598990000000    -0.416679   
O31      O      0.058210000000     0.991180000000     0.451320000000    -0.451541   
O32      O      0.123200000000     0.025240000000     0.562450000000    -0.4452     
O33      O      0.980310000000     0.962820000000     0.555100000000    -0.425669   
O34      O      0.052870000000     0.043750000000     0.520650000000    -0.570428   
O35      O      0.012490000000     0.443970000000     0.974650000000    -0.394326   
O36      O      0.008790000000     0.609300000000     0.013830000000    -0.445021   
O37      O      0.938690000000     0.507850000000     0.038160000000    -0.464338   
O38      O      0.075510000000     0.600810000000     0.933270000000    -0.424181   
O39      O      0.986120000000     0.568180000000     0.079190000000    -0.39435    
O40      O      0.048070000000     0.522930000000     0.932610000000    -0.443224   
O41      O      0.074890000000     0.658840000000     0.987450000000    -0.427842   
O42      O      0.951520000000     0.454770000000     0.988310000000    -0.440012   
O43      O      0.113330000000     0.502510000000     0.966550000000    -0.406743   
O44      O      0.072590000000     0.562390000000     0.089870000000    -0.421105   
O45      O      0.007490000000     0.441910000000     0.049230000000    -0.485029   
O46      O      0.127560000000     0.632790000000     0.044060000000    -0.438277   
O47      O      0.078360000000     0.649570000000     0.076410000000    -0.398841   
O48      O      0.083580000000     0.494310000000     0.039850000000    -0.445138   
O49      O      0.134560000000     0.577860000000     0.985050000000    -0.477128   
O50      O      0.999920000000     0.498450000000     0.097890000000    -0.445433   
O51      O      0.029820000000     0.539050000000     0.012270000000    -0.615501   
O52      O      0.984550000000     0.475820000000     0.456780000000    -0.42075    
O53      O      0.015210000000     0.620420000000     0.476200000000    -0.451435   
O54      O      0.952440000000     0.505730000000     0.570750000000    -0.393758   
O55      O      0.088860000000     0.593720000000     0.427170000000    -0.463133   
O56      O      0.958360000000     0.548080000000     0.516550000000    -0.455663   
O57      O      0.074240000000     0.518900000000     0.437780000000    -0.407169   
O58      O      0.093180000000     0.662200000000     0.470990000000    -0.450247   
O59      O      0.950160000000     0.449540000000     0.514310000000    -0.450683   
O60      O      0.104870000000     0.519690000000     0.523210000000    -0.430226   
O61      O      0.026690000000     0.581210000000     0.588310000000    -0.428167   
O62      O      0.032890000000     0.447370000000     0.545920000000    -0.417362   
O63      O      0.136900000000     0.633150000000     0.533580000000    -0.477627   
O64      O      0.085000000000     0.656650000000     0.545160000000    -0.44144    
O65      O      0.040070000000     0.441310000000     0.480670000000    -0.433704   
O66      O      0.149100000000     0.579920000000     0.483520000000    -0.456724   
O67      O      0.046910000000     0.523970000000     0.594680000000    -0.415633   
O68      O      0.044880000000     0.555190000000     0.507890000000    -0.563995   
O69      O      0.461160000000     0.055310000000     0.009820000000    -0.45696    
O70      O      0.599560000000     0.013450000000     0.019150000000    -0.394693   
O71      O      0.538390000000     0.100520000000     0.957480000000    -0.438005   
O72      O      0.474730000000     0.964340000000     0.102660000000    -0.446231   
O73      O      0.548250000000     0.038130000000     0.969420000000    -0.435485   
O74      O      0.439040000000     0.984960000000     0.054430000000    -0.463398   
O75      O      0.533290000000     0.964650000000     0.050730000000    -0.45982    
O76      O      0.496160000000     0.132280000000     0.007190000000    -0.397039   
O77      O      0.482610000000     0.044340000000     0.124910000000    -0.446468   
O78      O      0.643720000000     0.096730000000     0.978620000000    -0.406125   
O79      O      0.580430000000     0.167630000000     0.058390000000    -0.418118   
O80      O      0.614480000000     0.039320000000     0.093530000000    -0.449238   
O81      O      0.640500000000     0.106580000000     0.057750000000    -0.424768   
O82      O      0.506340000000     0.121890000000     0.080260000000    -0.433077   
O83      O      0.553450000000     0.048800000000     0.135290000000    -0.471589   
O84      O      0.628220000000     0.153110000000     0.998290000000    -0.44297    
O85      O      0.539010000000     0.059130000000     0.048610000000    -0.548189   
O86      O      0.473150000000     0.042250000000     0.510820000000    -0.455554   
O87      O      0.593930000000     0.994750000000     0.504490000000    -0.395456   
O88      O      0.552730000000     0.102960000000     0.463960000000    -0.444395   
O89      O      0.476470000000     0.941080000000     0.598360000000    -0.454082   
O90      O      0.547710000000     0.032620000000     0.466630000000    -0.433669   
O91      O      0.447580000000     0.965310000000     0.547880000000    -0.458991   
O92      O      0.531270000000     0.944830000000     0.540960000000    -0.463213   
O93      O      0.504090000000     0.117790000000     0.518960000000    -0.39289    
O94      O      0.487130000000     0.016920000000     0.624630000000    -0.439035   
O95      O      0.645340000000     0.090190000000     0.473660000000    -0.394924   
O96      O      0.585440000000     0.142310000000     0.574420000000    -0.420798   
O97      O      0.612920000000     0.006780000000     0.584510000000    -0.467778   
O98      O      0.643850000000     0.078290000000     0.555720000000    -0.42344    
O99      O      0.508790000000     0.096670000000     0.588100000000    -0.433354   
O100     O      0.557110000000     0.018440000000     0.635120000000    -0.454622   
O101     O      0.636520000000     0.139750000000     0.513560000000    -0.443641   
O102     O      0.544460000000     0.040340000000     0.549610000000    -0.560336   
O103     O      0.495360000000     0.438770000000     0.047480000000    -0.377811   
O104     O      0.525430000000     0.628160000000     0.046520000000    -0.439653   
O105     O      0.437220000000     0.530620000000     0.080220000000    -0.481193   
O106     O      0.599010000000     0.586070000000     0.996100000000    -0.451874   
O107     O      0.484430000000     0.599640000000     0.112030000000    -0.401478   
O108     O      0.543020000000     0.510150000000     0.999860000000    -0.455881   
O109     O      0.597290000000     0.657510000000     0.027180000000    -0.422198   
O110     O      0.446280000000     0.467780000000     0.044410000000    -0.445711   
O111     O      0.595210000000     0.483300000000     0.045470000000    -0.42137    
O112     O      0.558310000000     0.581420000000     0.146140000000    -0.426972   
O113     O      0.487530000000     0.449830000000     0.117670000000    -0.451359   
O114     O      0.624960000000     0.634280000000     0.103520000000    -0.443949   
O115     O      0.583840000000     0.671500000000     0.113310000000    -0.391301   
O116     O      0.565230000000     0.495980000000     0.113860000000    -0.434298   
O117     O      0.634610000000     0.561110000000     0.066860000000    -0.438948   
O118     O      0.482620000000     0.521300000000     0.149940000000    -0.469189   
O119     O      0.527800000000     0.546470000000     0.068550000000    -0.617465   
O120     O      0.478510000000     0.494910000000     0.506570000000    -0.433304   
O121     O      0.546630000000     0.643930000000     0.564640000000    -0.470564   
O122     O      0.443660000000     0.510900000000     0.612000000000    -0.504834   
O123     O      0.574110000000     0.555230000000     0.481230000000    -0.503786   
O124     O      0.486750000000     0.590330000000     0.615310000000    -0.481712   
O125     O      0.544350000000     0.476100000000     0.483260000000    -0.399867   
O126     O      0.545110000000     0.617100000000     0.504000000000    -0.428925   
O127     O      0.445730000000     0.455680000000     0.563090000000    -0.486553   
O128     O      0.598790000000     0.509090000000     0.552270000000    -0.442651   
O129     O      0.559830000000     0.584740000000     0.662120000000    -0.506092   
O130     O      0.520560000000     0.452230000000     0.613190000000    -0.467293   
O131     O      0.628810000000     0.661540000000     0.551120000000    -0.446739   
O132     O      0.623400000000     0.637690000000     0.613500000000    -0.456933   
O133     O      0.510570000000     0.437340000000     0.549140000000    -0.411232   
O134     O      0.643230000000     0.587920000000     0.544730000000    -0.444759   
O135     O      0.512010000000     0.505890000000     0.661110000000    -0.52077    
O136     O      0.540830000000     0.547970000000     0.576200000000    -0.528736   


