data_structure

_audit_creation_method RASPA-1.0
_audit_creation_date 2023-6-4
_audit_author_name 'Poobodin Mano'

_cell_length_a    22.941
_cell_length_b    24.1383
_cell_length_c    23.7672
_cell_angle_alpha 87.1358
_cell_angle_beta  93.8199
_cell_angle_gamma 120.435
_cell_volume      11320.5

_symmetry_cell_setting          triclinic
_symmetry_space_group_name_Hall 'P 1'
_symmetry_space_group_name_H-M  'P 1'
_symmetry_Int_Tables_number     1

_symmetry_equiv_pos_as_xyz 'x,y,z'

loop_
_atom_site_label
_atom_site_type_symbol
_atom_site_fract_x
_atom_site_fract_y
_atom_site_fract_z
_atom_site_charge
C1       C      0.055820000000     0.192040000000     0.067560000000     0.504561   
C2       C      0.890660000000     0.877820000000     0.040630000000     0.373771   
C3       C      0.006110000000     0.028190000000     0.915410000000     0.474286   
C4       C      0.920410000000     0.022440000000     0.134180000000     0.415143   
C5       C      0.044380000000     0.987610000000     0.189400000000     0.474816   
C6       C      0.164620000000     0.056210000000     0.977780000000     0.425343   
C7       C      0.194930000000     0.183730000000     0.073610000000     0.509629   
C8       C      0.041640000000     0.885730000000     0.035500000000     0.37372    
C9       C      0.045060000000     0.997910000000     0.421900000000     0.478224   
C10      C      0.085670000000     0.185540000000     0.587540000000     0.440365   
C11      C      0.915840000000     0.980450000000     0.505450000000     0.427415   
C12      C      0.212820000000     0.196690000000     0.521170000000     0.456934   
C13      C      0.237680000000     0.080360000000     0.585290000000     0.480593   
C14      C      0.953820000000     0.926330000000     0.632460000000     0.444538   
C15      C      0.136010000000     0.947190000000     0.517380000000     0.465527   
C16      C      0.043510000000     0.057370000000     0.691530000000     0.458346   
C17      C      0.908910000000     0.404360000000     0.999310000000     0.479194   
C18      C      0.053750000000     0.665930000000     0.017740000000     0.492726   
C19      C      0.889850000000     0.495280000000     0.122280000000     0.409721   
C20      C      0.073170000000     0.515850000000     0.920860000000     0.463996   
C21      C      0.186420000000     0.519300000000     0.038180000000     0.519984   
C22      C      0.044850000000     0.522680000000     0.201780000000     0.489161   
C23      C      0.989660000000     0.372950000000     0.115470000000     0.446083   
C24      C      0.192560000000     0.669270000000     0.101760000000     0.503332   
C25      C      0.931280000000     0.426060000000     0.493170000000     0.486075   
C26      C      0.154470000000     0.730400000000     0.498730000000     0.400251   
C27      C      0.957850000000     0.561530000000     0.591810000000     0.445399   
C28      C      0.077040000000     0.573310000000     0.408690000000     0.508004   
C29      C      0.226260000000     0.570040000000     0.480180000000     0.497169   
C30      C      0.076180000000     0.533380000000     0.685130000000     0.450253   
C31      C      0.043810000000     0.381040000000     0.559890000000     0.503417   
C32      C      0.228190000000     0.681150000000     0.609250000000     0.45986    
C33      C      0.398570000000     0.053580000000     0.983030000000     0.475036   
C34      C      0.593930000000     0.928550000000     0.006440000000     0.362582   
C35      C      0.563660000000     0.055490000000     0.919000000000     0.455555   
C36      C      0.424420000000     0.892210000000     0.102410000000     0.469987   
C37      C      0.523240000000     0.021870000000     0.187400000000     0.466158   
C38      C      0.685750000000     0.166970000000     0.010970000000     0.437519   
C39      C      0.490210000000     0.151050000000     0.102380000000     0.488308   
C40      C      0.669740000000     0.002710000000     0.124150000000     0.366217   
C41      C      0.436810000000     0.073180000000     0.527570000000     0.425397   
C42      C      0.576000000000     0.922360000000     0.492510000000     0.468284   
C43      C      0.571830000000     0.076900000000     0.407630000000     0.452518   
C44      C      0.457340000000     0.897390000000     0.632960000000     0.45712    
C45      C      0.587420000000     0.041410000000     0.690880000000     0.470878   
C46      C      0.690330000000     0.202800000000     0.491260000000     0.383589   
C47      C      0.572440000000     0.164460000000     0.613390000000     0.444911   
C48      C      0.699200000000     0.997010000000     0.582400000000     0.363179   
C49      C      0.425380000000     0.392180000000     0.020920000000     0.481495   
C50      C      0.569790000000     0.693950000000     0.015150000000     0.464426   
C51      C      0.409590000000     0.518880000000     0.132040000000     0.534018   
C52      C      0.568280000000     0.526970000000     0.937850000000     0.459665   
C53      C      0.692080000000     0.539000000000     0.058730000000     0.481451   
C54      C      0.561500000000     0.539550000000     0.210790000000     0.4827     
C55      C      0.489500000000     0.364760000000     0.144330000000     0.385361   
C56      C      0.693200000000     0.685630000000     0.108000000000     0.521459   
C57      C      0.445760000000     0.421460000000     0.508040000000     0.476841   
C58      C      0.604210000000     0.719460000000     0.515890000000     0.472324   
C59      C      0.449770000000     0.575360000000     0.589760000000     0.48773    
C60      C      0.620950000000     0.546100000000     0.430020000000     0.446531   
C61      C      0.726470000000     0.578930000000     0.563570000000     0.461935   
C62      C      0.552460000000     0.544600000000     0.704910000000     0.493868   
C63      C      0.572750000000     0.392790000000     0.584280000000     0.381651   
C64      C      0.722290000000     0.704210000000     0.615700000000     0.464259   
C65      C      0.512810000000     0.555760000000     0.794680000000    -0.00321086 
C66      C      0.539060000000     0.469220000000     0.784350000000    -0.00119786 
C67      C      0.551540000000     0.573850000000     0.850770000000    -0.011015   
C68      C      0.565460000000     0.475120000000     0.847330000000    -0.0205625  
C69      C      0.598980000000     0.597900000000     0.300540000000    -0.0101141  
C70      C      0.576330000000     0.483920000000     0.297670000000     0.000202672
C71      C      0.657470000000     0.613040000000     0.343580000000    -0.00250684 
C72      C      0.636940000000     0.503320000000     0.340550000000    -0.0229394  
C73      C      0.557510000000     0.786330000000     0.537040000000    -0.00876449 
C74      C      0.588690000000     0.782870000000     0.435910000000    -0.00716747 
C75      C      0.511710000000     0.806620000000     0.505390000000    -0.00871777 
C76      C      0.580380000000     0.843990000000     0.422140000000    -0.0182073  
C77      C      0.530280000000     0.231600000000     0.654180000000    -0.00788639 
C78      C      0.646370000000     0.282480000000     0.624120000000    -0.00207792 
C79      C      0.517930000000     0.282290000000     0.621300000000    -0.0139077  
C80      C      0.638650000000     0.336470000000     0.592770000000    -0.0264433  
C81      C      0.601440000000     0.114880000000     0.828920000000    -0.00755969 
C82      C      0.605920000000     0.014860000000     0.848250000000    -0.00621842 
C83      C      0.580280000000     0.096690000000     0.767630000000    -0.0109129  
C84      C      0.595900000000     0.000330000000     0.784380000000    -0.0200592  
C85      C      0.470610000000     0.001980000000     0.281360000000    -0.00596552 
C86      C      0.595700000000     0.050340000000     0.273460000000    -0.00139124 
C87      C      0.485210000000     0.050330000000     0.329230000000    -0.0169108  
C88      C      0.604680000000     0.106690000000     0.305080000000    -0.0206852  
C89      C      0.645470000000     0.863730000000     0.980720000000    -0.015667   
C90      C      0.524390000000     0.811590000000     0.011880000000    -0.00647641 
C91      C      0.626160000000     0.796730000000     0.956340000000    -0.0136261  
C92      C      0.509480000000     0.754480000000     0.976990000000    -0.0220447  
C93      C      0.421480000000     0.187460000000     0.149050000000    -0.00437085 
C94      C      0.547430000000     0.263460000000     0.129290000000     0.00671045 
C95      C      0.420660000000     0.247780000000     0.171060000000    -0.0174294  
C96      C      0.546990000000     0.304390000000     0.175460000000    -0.0299637  
C97      C      0.806480000000     0.381790000000     0.484620000000    -0.0112618  
C98      C      0.859920000000     0.329810000000     0.438450000000    -0.00863887 
C99      C      0.740900000000     0.318530000000     0.466030000000    -0.0159902  
C100     C      0.816930000000     0.270220000000     0.475160000000    -0.0159116  
C101     C      0.353400000000     0.734770000000     0.614450000000    -0.010748   
C102     C      0.290270000000     0.784600000000     0.653900000000    -0.00289387 
C103     C      0.417000000000     0.781930000000     0.650410000000    -0.0119785  
C104     C      0.353970000000     0.825420000000     0.690320000000    -0.0215674  
C105     C      0.872390000000     0.568400000000     0.530540000000    -0.00162921 
C106     C      0.865260000000     0.561720000000     0.637990000000    -0.00398773 
C107     C      0.834100000000     0.605100000000     0.527170000000    -0.00399705 
C108     C      0.827100000000     0.599190000000     0.631010000000    -0.00866675 
C109     C      0.407850000000     0.639260000000     0.536120000000    -0.00454885 
C110     C      0.327700000000     0.521430000000     0.557310000000     0.00642553 
C111     C      0.349310000000     0.639860000000     0.498880000000    -0.0106731  
C112     C      0.297660000000     0.520080000000     0.496990000000    -0.0224516  
C113     C      0.085930000000     0.579900000000     0.776780000000    -0.00730243 
C114     C      0.056970000000     0.464580000000     0.768550000000    -0.00339537 
C115     C      0.117070000000     0.580100000000     0.835090000000    -0.0101942  
C116     C      0.074460000000     0.461860000000     0.832740000000    -0.0174983  
C117     C      0.016270000000     0.479070000000     0.299020000000    -0.0109057  
C118     C      0.121650000000     0.583200000000     0.281730000000    -0.000159292
C119     C      0.991750000000     0.515450000000     0.333810000000    -0.00543175 
C120     C      0.093220000000     0.619020000000     0.311560000000    -0.0223126  
C121     C      0.783580000000     0.344670000000     0.981580000000    -0.00502597 
C122     C      0.849890000000     0.298640000000     0.950520000000    -0.00163655 
C123     C      0.742110000000     0.284160000000     0.017980000000    -0.0140956  
C124     C      0.809360000000     0.236140000000     0.985940000000    -0.0228129  
C125     C      0.316520000000     0.716390000000     0.116940000000    -0.0075484  
C126     C      0.257260000000     0.767730000000     0.158140000000    -0.00203555 
C127     C      0.380040000000     0.779820000000     0.136050000000    -0.00587801 
C128     C      0.306300000000     0.830990000000     0.128530000000    -0.0196922  
C129     C      0.862210000000     0.560360000000     0.057990000000    -0.00637623 
C130     C      0.784440000000     0.490110000000     0.136490000000    -0.00316939 
C131     C      0.804230000000     0.570170000000     0.034770000000    -0.0171896  
C132     C      0.775780000000     0.548090000000     0.136950000000    -0.0132351  
C133     C      0.323240000000     0.543240000000     0.142940000000    -0.00810758 
C134     C      0.341650000000     0.510610000000     0.051280000000    -0.0101155  
C135     C      0.252460000000     0.525010000000     0.120960000000    -0.00190674 
C136     C      0.270280000000     0.489800000000     0.029560000000    -0.0150486  
C137     C      0.904720000000     0.810080000000     0.650050000000    -0.0120017  
C138     C      0.848880000000     0.864050000000     0.687680000000    -0.00461839 
C139     C      0.843390000000     0.769290000000     0.611540000000    -0.0044598  
C140     C      0.778390000000     0.807100000000     0.666100000000    -0.0173521  
C141     C      0.322730000000     0.369200000000     0.498520000000    -0.0141775  
C142     C      0.379900000000     0.317670000000     0.456250000000    -0.00469307 
C143     C      0.288590000000     0.310520000000     0.536930000000    -0.00198237 
C144     C      0.304150000000     0.258970000000     0.452590000000    -0.0217935  
C145     C      0.737150000000     0.922590000000     0.555150000000    -0.0149807  
C146     C      0.784710000000     0.031880000000     0.512570000000    -0.0162122  
C147     C      0.804010000000     0.923490000000     0.547550000000    -0.00572799 
C148     C      0.852100000000     0.036120000000     0.501280000000    -0.00233996 
C149     C      0.381460000000     0.137780000000     0.528480000000    -0.0133192  
C150     C      0.349280000000     0.040360000000     0.596380000000     0.0134456  
C151     C      0.354430000000     0.162730000000     0.572350000000    -0.00283798 
C152     C      0.330040000000     0.073970000000     0.638090000000    -0.0265506  
C153     C      0.207540000000     0.908640000000     0.475580000000    -0.012016   
C154     C      0.097290000000     0.833530000000     0.521600000000     0.00709795 
C155     C      0.218120000000     0.848460000000     0.478990000000    -0.0146685  
C156     C      0.092050000000     0.790670000000     0.474420000000    -0.0201169  
C157     C      0.069370000000     0.265930000000     0.633700000000    -0.0126706  
C158     C      0.110740000000     0.284040000000     0.535580000000    -0.00235653 
C159     C      0.012750000000     0.279940000000     0.611990000000    -0.0100919  
C160     C      0.051780000000     0.292260000000     0.514270000000    -0.0161806  
C161     C      0.035810000000     0.996410000000     0.778720000000    -0.0113541  
C162     C      0.965890000000     0.051090000000     0.762250000000    -0.000638884
C163     C      0.991270000000     0.969270000000     0.829220000000    -0.00617258 
C164     C      0.981020000000     0.069820000000     0.824870000000    -0.0193067  
C165     C      0.999090000000     0.925060000000     0.276740000000    -0.00605946 
C166     C      0.088500000000     0.045250000000     0.277150000000     0.00384413 
C167     C      0.986920000000     0.935090000000     0.337530000000    -0.00607844 
C168     C      0.108030000000     0.031770000000     0.335940000000    -0.0190297  
C169     C      0.767330000000     0.802010000000     0.117190000000    -0.00702764 
C170     C      0.807670000000     0.735720000000     0.074750000000    -0.0083589  
C171     C      0.774310000000     0.836450000000     0.059160000000    -0.014396   
C172     C      0.807890000000     0.767570000000     0.016870000000    -0.0167189  
C173     C      0.301390000000     0.218680000000     0.038960000000    -0.0170207  
C174     C      0.265780000000     0.297570000000     0.063370000000    -0.000434585
C175     C      0.368380000000     0.275940000000     0.019340000000    -0.000874868
C176     C      0.301410000000     0.333350000000     0.009860000000    -0.0166225  
C177     C      0.738540000000     0.951210000000     0.128960000000    -0.0142797  
C178     C      0.791670000000     0.068400000000     0.151830000000    -0.00550451 
C179     C      0.800040000000     0.952350000000     0.161070000000    -0.0130887  
C180     C      0.850120000000     0.062870000000     0.184650000000    -0.026579   
C181     C      0.339550000000     0.101790000000     0.923350000000    -0.0107202  
C182     C      0.274890000000     0.992060000000     0.969180000000    -0.00375484 
C183     C      0.284440000000     0.113840000000     0.945050000000    -0.0118033  
C184     C      0.212710000000     0.993690000000     0.942560000000    -0.0193149  
C185     C      0.060570000000     0.761720000000     0.972520000000     0.00161021 
C186     C      0.034270000000     0.735990000000     0.075720000000     0.0154392  
C187     C      0.091230000000     0.832780000000     0.986060000000    -0.0146277  
C188     C      0.072810000000     0.808320000000     0.088160000000    -0.0184541  
C189     C      0.971480000000     0.281170000000     0.061450000000    -0.0132097  
C190     C      0.064850000000     0.334120000000     0.137430000000    -0.00100696 
C191     C      0.025670000000     0.272960000000     0.034590000000    -0.00599593 
C192     C      0.074600000000     0.276560000000     0.134930000000    -0.0232084  
Co1      Co     0.078650000000     0.097140000000     0.131640000000     1.14062    
Co2      Co     0.031770000000     0.972830000000     0.015050000000     0.889256   
Co3      Co     0.082180000000     0.121560000000     0.992190000000     1.1729     
Co4      Co     0.980010000000     0.957320000000     0.082360000000     0.84663    
Co5      Co     0.148810000000     0.072900000000     0.490100000000     1.14473    
Co6      Co     0.998450000000     0.058370000000     0.578160000000     1.04471    
Co7      Co     0.018990000000     0.945560000000     0.539470000000     1.06501    
Co8      Co     0.148330000000     0.108870000000     0.620780000000     1.06952    
Co9      Co     0.054210000000     0.450330000000     0.035920000000     1.17465    
Co10     Co     0.043080000000     0.595090000000     0.107830000000     1.16495    
Co11     Co     0.956180000000     0.463150000000     0.099220000000     1.05383    
Co12     Co     0.131720000000     0.597890000000     0.005880000000     1.10889    
Co13     Co     0.083690000000     0.478520000000     0.485080000000     1.25391    
Co14     Co     0.087150000000     0.624990000000     0.584860000000     0.900627   
Co15     Co     0.999640000000     0.471560000000     0.595720000000     1.08439    
Co16     Co     0.156000000000     0.631460000000     0.512630000000     0.968917   
Co17     Co     0.434880000000     0.010200000000     0.085780000000     1.16236    
Co18     Co     0.604360000000     0.027110000000     0.023830000000     0.781809   
Co19     Co     0.550280000000     0.130130000000     0.010280000000     1.13054    
Co20     Co     0.563100000000     0.987290000000     0.093590000000     0.85785    
Co21     Co     0.480970000000     0.022090000000     0.605510000000     1.13611    
Co22     Co     0.651350000000     0.062270000000     0.501330000000     0.782301   
Co23     Co     0.579810000000     0.114280000000     0.515130000000     1.052      
Co24     Co     0.593560000000     0.986110000000     0.591540000000     1.14572    
Co25     Co     0.561860000000     0.458780000000     0.052830000000     0.876808   
Co26     Co     0.546240000000     0.620500000000     0.116870000000     1.16203    
Co27     Co     0.486960000000     0.460970000000     0.111460000000     1.01953    
Co28     Co     0.631680000000     0.608480000000     0.022010000000     1.15368    
Co29     Co     0.591110000000     0.489390000000     0.542350000000     1.00844    
Co30     Co     0.586170000000     0.642220000000     0.616510000000     1.17854    
Co31     Co     0.503730000000     0.481880000000     0.607930000000     0.93749    
Co32     Co     0.652440000000     0.635880000000     0.505980000000     1.066      
H1       H      0.604180000000     0.613690000000     0.844350000000     0.0600451  
H2       H      0.515870000000     0.599790000000     0.774730000000     0.0463087  
H3       H      0.621060000000     0.494960000000     0.847620000000     0.0576772  
H4       H      0.569680000000     0.455930000000     0.759760000000     0.0662389  
H5       H      0.525740000000     0.592380000000     0.875690000000     0.0586597  
H6       H      0.458500000000     0.520260000000     0.800900000000     0.0495836  
H7       H      0.485500000000     0.429540000000     0.779710000000     0.0509189  
H8       H      0.619700000000     0.398840000000     0.910840000000     0.149701   
H9       H      0.704800000000     0.630870000000     0.320800000000     0.0449796  
H10      H      0.614330000000     0.641910000000     0.273940000000     0.0520193  
H11      H      0.682800000000     0.523890000000     0.315870000000     0.069523   
H12      H      0.573940000000     0.448380000000     0.268500000000     0.0654685  
H13      H      0.666450000000     0.653100000000     0.370760000000     0.0363379  
H14      H      0.553420000000     0.587670000000     0.322930000000     0.0606798  
H15      H      0.528450000000     0.460300000000     0.320370000000     0.0590796  
H16      H      0.741670000000     0.485320000000     0.404080000000     0.149471   
H17      H      0.473230000000     0.767370000000     0.478070000000     0.0402692  
H18      H      0.528730000000     0.748770000000     0.568840000000     0.0448056  
H19      H      0.538780000000     0.828350000000     0.389030000000     0.054404   
H20      H      0.547060000000     0.741330000000     0.412670000000     0.0520622  
H21      H      0.481850000000     0.815440000000     0.534740000000     0.0504432  
H22      H      0.598440000000     0.827190000000     0.561050000000     0.0576616  
H23      H      0.636380000000     0.790270000000     0.419330000000     0.0522368  
H24      H      0.690880000000     0.000400000000     0.350250000000     0.178706   
H25      H      0.492360000000     0.261790000000     0.580130000000     0.0436435  
H26      H      0.481900000000     0.185790000000     0.656200000000     0.044267   
H27      H      0.633750000000     0.327520000000     0.546920000000     0.0619032  
H28      H      0.683090000000     0.275260000000     0.601830000000     0.0568314  
H29      H      0.484690000000     0.292370000000     0.645680000000     0.0450334  
H30      H      0.547420000000     0.247410000000     0.698380000000     0.0475784  
H31      H      0.667900000000     0.296900000000     0.667900000000     0.0556841  
H32      H      0.725340000000     0.429020000000     0.520020000000     0.158248   
H33      H      0.524030000000     0.072140000000     0.763760000000     0.0631342  
H34      H      0.577160000000     0.142080000000     0.841240000000     0.0483904  
H35      H      0.543340000000     0.959510000000     0.777770000000     0.0547071  
H36      H      0.579930000000     0.967860000000     0.871330000000     0.0597274  
H37      H      0.600770000000     0.141770000000     0.741620000000     0.0439154  
H38      H      0.657130000000     0.147160000000     0.833180000000     0.0639555  
H39      H      0.660490000000     0.038180000000     0.861290000000     0.0781385  
H40      H      0.574630000000     0.876460000000     0.742220000000     0.150267   
H41      H      0.474490000000     0.088110000000     0.312160000000     0.0637159  
H42      H      0.424420000000     0.994040000000     0.256330000000     0.0510061  
H43      H      0.589010000000     0.134660000000     0.275480000000     0.0704748  
H44      H      0.637260000000     0.065800000000     0.244110000000     0.0663598  
H45      H      0.449330000000     0.024180000000     0.363160000000     0.0577918  
H46      H      0.458930000000     0.955020000000     0.301230000000     0.049242   
H47      H      0.596740000000     0.013730000000     0.302810000000     0.0682682  
H48      H      0.671900000000     0.228640000000     0.361550000000     0.166553   
H49      H      0.613390000000     0.797450000000     0.910410000000     0.0514195  
H50      H      0.677360000000     0.902130000000     0.950230000000     0.0650981  
H51      H      0.504850000000     0.768170000000     0.932110000000     0.0525404  
H52      H      0.479780000000     0.818350000000     0.006240000000     0.0664887  
H53      H      0.670100000000     0.789430000000     0.958110000000     0.0500209  
H54      H      0.676350000000     0.871100000000     0.020340000000     0.0410563  
H55      H      0.530940000000     0.801390000000     0.057300000000     0.0565346  
H56      H      0.428350000000     0.636520000000     0.914900000000     0.1575     
H57      H      0.378910000000     0.251490000000     0.148230000000     0.0562389  
H58      H      0.382580000000     0.166030000000     0.114290000000     0.0394349  
H59      H      0.593470000000     0.352220000000     0.172460000000     0.0742887  
H60      H      0.549720000000     0.287590000000     0.087680000000     0.043771   
H61      H      0.407500000000     0.239120000000     0.216030000000     0.0589051  
H62      H      0.404730000000     0.150140000000     0.183180000000     0.0590064  
H63      H      0.594360000000     0.260560000000     0.135990000000     0.0576636  
H64      H      0.521680000000     0.334830000000     0.278530000000     0.160429   
H65      H      0.698140000000     0.314880000000     0.488210000000     0.0516599  
H66      H      0.807430000000     0.384030000000     0.531060000000     0.0604942  
H67      H      0.840150000000     0.278900000000     0.518810000000     0.0642774  
H68      H      0.908550000000     0.333970000000     0.430360000000     0.0728234  
H69      H      0.730020000000     0.322140000000     0.420190000000     0.0635348  
H70      H      0.804170000000     0.423560000000     0.465510000000     0.0427294  
H71      H      0.834150000000     0.326580000000     0.396350000000     0.0649813  
H72      H      0.747980000000     0.109050000000     0.463110000000     0.123589   
H73      H      0.418250000000     0.758460000000     0.691610000000     0.0434688  
H74      H      0.349340000000     0.686940000000     0.617190000000     0.0422981  
H75      H      0.351950000000     0.796230000000     0.728750000000     0.0538845  
H76      H      0.245920000000     0.769350000000     0.680140000000     0.0597701  
H77      H      0.463600000000     0.793000000000     0.629370000000     0.0438646  
H78      H      0.361300000000     0.753640000000     0.570360000000     0.0473316  
H79      H      0.287070000000     0.813840000000     0.617420000000     0.0622764  
H80      H      0.428230000000     0.944500000000     0.781230000000     0.163539   
H81      H      0.869650000000     0.657730000000     0.527040000000     0.0580288  
H82      H      0.910960000000     0.589440000000     0.498460000000     0.0704847  
H83      H      0.868090000000     0.650350000000     0.630740000000     0.0511378  
H84      H      0.901930000000     0.581410000000     0.674900000000     0.0529598  
H85      H      0.805030000000     0.593310000000     0.485800000000     0.0597445  
H86      H      0.839530000000     0.518540000000     0.516800000000     0.0587706  
H87      H      0.830910000000     0.510870000000     0.647790000000     0.0813818  
H88      H      0.805700000000     0.655720000000     0.763340000000     0.178715   
H89      H      0.334670000000     0.670890000000     0.518790000000     0.0539633  
H90      H      0.423180000000     0.674830000000     0.569640000000     0.0340469  
H91      H      0.248830000000     0.474580000000     0.494360000000     0.0734955  
H92      H      0.294990000000     0.525240000000     0.587580000000     0.0499378  
H93      H      0.368480000000     0.663680000000     0.457580000000     0.0574687  
H94      H      0.451030000000     0.656460000000     0.508240000000     0.0575474  
H95      H      0.327470000000     0.476830000000     0.569630000000     0.0449818  
H96      H      0.267210000000     0.460450000000     0.380170000000     0.171632   
H97      H      0.170700000000     0.593120000000     0.831600000000     0.0546033  
H98      H      0.117890000000     0.628030000000     0.756850000000     0.0517399  
H99      H      0.123740000000     0.463390000000     0.838030000000     0.0735171  
H100     H      0.077100000000     0.438510000000     0.746600000000     0.0601449  
H101     H      0.117850000000     0.619260000000     0.858420000000     0.0521785  
H102     H      0.034180000000     0.572080000000     0.780400000000     0.0554532  
H103     H      0.001010000000     0.438120000000     0.760410000000     0.0593943  
H104     H      0.013660000000     0.312750000000     0.912910000000     0.163173   
H105     H      0.958310000000     0.527110000000     0.306010000000     0.0465142  
H106     H      0.971940000000     0.437250000000     0.278420000000     0.0585733  
H107     H      0.061200000000     0.628730000000     0.280030000000     0.0550658  
H108     H      0.157130000000     0.614480000000     0.249060000000     0.0566994  
H109     H      0.960210000000     0.483650000000     0.368320000000     0.0484198  
H110     H      0.042380000000     0.459870000000     0.327670000000     0.0544005  
H111     H      0.151570000000     0.570300000000     0.312750000000     0.0540712  
H112     H      0.100320000000     0.742980000000     0.340850000000     0.156725   
H113     H      0.762840000000     0.293800000000     0.062340000000     0.0669986  
H114     H      0.785810000000     0.386740000000     0.000950000000     0.0510941  
H115     H      0.837210000000     0.241280000000     0.026980000000     0.0559772  
H116     H      0.901690000000     0.307680000000     0.945940000000     0.0648059  
H117     H      0.690140000000     0.276950000000     0.016930000000     0.0427583  
H118     H      0.757530000000     0.338620000000     0.939240000000     0.0452285  
H119     H      0.825800000000     0.291560000000     0.907240000000     0.0634679  
H120     H      0.836610000000     0.119320000000     0.011730000000     0.157946   
H121     H      0.388230000000     0.779090000000     0.182650000000     0.0483078  
H122     H      0.317180000000     0.675490000000     0.139790000000     0.0449651  
H123     H      0.316380000000     0.870380000000     0.157080000000     0.037973   
H124     H      0.277680000000     0.766890000000     0.201680000000     0.0560598  
H125     H      0.424960000000     0.783900000000     0.116720000000     0.0524242  
H126     H      0.319760000000     0.711610000000     0.071090000000     0.0719071  
H127     H      0.207420000000     0.764180000000     0.162020000000     0.0604012  
H128     H      0.241740000000     0.902750000000     0.105920000000     0.148707   
H129     H      0.825030000000     0.619750000000     0.017230000000     0.0569339  
H130     H      0.901780000000     0.606630000000     0.076470000000     0.0544728  
H131     H      0.825740000000     0.590890000000     0.148400000000     0.0524489  
H132     H      0.793670000000     0.476470000000     0.180300000000     0.0572966  
H133     H      0.778110000000     0.536150000000     0.999380000000     0.0516674  
H134     H      0.883530000000     0.549640000000     0.022160000000     0.0645188  
H135     H      0.738480000000     0.448300000000     0.117530000000     0.056021   
H136     H      0.746710000000     0.638800000000     0.207570000000     0.150719   
H137     H      0.216930000000     0.476050000000     0.137630000000     0.0669685  
H138     H      0.322110000000     0.531710000000     0.188950000000     0.0467048  
H139     H      0.237750000000     0.437780000000     0.039680000000     0.05328    
H140     H      0.358430000000     0.481050000000     0.032220000000     0.0696323  
H141     H      0.239210000000     0.558880000000     0.138630000000     0.0503439  
H142     H      0.357110000000     0.595900000000     0.137260000000     0.057941   
H143     H      0.375180000000     0.560070000000     0.036660000000     0.0906979  
H144     H      0.186830000000     0.400620000000     0.940480000000     0.165643   
H145     H      0.846980000000     0.795760000000     0.570980000000     0.0459136  
H146     H      0.950840000000     0.816660000000     0.631030000000     0.0480233  
H147     H      0.757130000000     0.827680000000     0.633960000000     0.0491653  
H148     H      0.847680000000     0.909570000000     0.685530000000     0.0480147  
H149     H      0.843050000000     0.724770000000     0.601850000000     0.0412816  
H150     H      0.900620000000     0.785270000000     0.691530000000     0.0633756  
H151     H      0.858450000000     0.855930000000     0.732980000000     0.0530403  
H152     H      0.612960000000     0.728160000000     0.729590000000     0.157592   
H153     H      0.324500000000     0.312070000000     0.571530000000     0.0455149  
H154     H      0.330190000000     0.411560000000     0.519510000000     0.0590516  
H155     H      0.307170000000     0.214550000000     0.450580000000     0.0371783  
H156     H      0.410100000000     0.301480000000     0.483430000000     0.0433268  
H157     H      0.245270000000     0.309640000000     0.556010000000     0.0384213  
H158     H      0.288680000000     0.363360000000     0.461290000000     0.0796985  
H159     H      0.402380000000     0.329930000000     0.414260000000     0.0631608  
H160     H      0.289560000000     0.212160000000     0.335320000000     0.151706   
H161     H      0.826940000000     0.927990000000     0.590410000000     0.0505799  
H162     H      0.715130000000     0.895000000000     0.594580000000     0.0566974  
H163     H      0.890490000000     0.072720000000     0.530910000000     0.0384643  
H164     H      0.798870000000     0.080760000000     0.524930000000     0.0581062  
H165     H      0.791860000000     0.876220000000     0.531250000000     0.0514761  
H166     H      0.700600000000     0.896230000000     0.520060000000     0.0589781  
H167     H      0.751340000000     0.018510000000     0.473830000000     0.0665974  
H168     H      0.908330000000     0.036770000000     0.359360000000     0.16053    
H169     H      0.394280000000     0.194230000000     0.602560000000     0.0330962  
H170     H      0.429220000000     0.178750000000     0.512920000000     0.0501963  
H171     H      0.376710000000     0.108570000000     0.661960000000     0.0472476  
H172     H      0.378590000000     0.022140000000     0.621590000000     0.0224532  
H173     H      0.335200000000     0.192900000000     0.551530000000     0.0440105  
H174     H      0.344380000000     0.119310000000     0.491870000000     0.0511622  
H175     H      0.303180000000     0.999510000000     0.576820000000     0.0517073  
H176     H      0.281970000000     0.100050000000     0.737240000000     0.152308   
H177     H      0.247600000000     0.850680000000     0.442840000000     0.0639844  
H178     H      0.198240000000     0.917790000000     0.430710000000     0.0719301  
H179     H      0.091550000000     0.814250000000     0.433040000000     0.068786   
H180     H      0.047260000000     0.830060000000     0.524880000000     0.0409585  
H181     H      0.249030000000     0.852510000000     0.518360000000     0.0560821  
H182     H      0.254990000000     0.951770000000     0.490430000000     0.0514375  
H183     H      0.110550000000     0.817720000000     0.562810000000     0.0596006  
H184     H      0.988340000000     0.664270000000     0.398410000000     0.154566   
H185     H      0.965380000000     0.233750000000     0.602830000000     0.0561873  
H186     H      0.049850000000     0.228850000000     0.667990000000     0.0617238  
H187     H      0.008070000000     0.243440000000     0.505510000000     0.0808436  
H188     H      0.124760000000     0.261990000000     0.502780000000     0.0672846  
H189     H      0.002490000000     0.303740000000     0.645770000000     0.0538445  
H190     H      0.112960000000     0.310430000000     0.651590000000     0.0556273  
H191     H      0.155490000000     0.331960000000     0.545290000000     0.052392   
H192     H      0.020810000000     0.362970000000     0.383610000000     0.167387   
H193     H      0.938470000000     0.934120000000     0.814840000000     0.0519131  
H194     H      0.029870000000     0.955690000000     0.754090000000     0.0553992  
H195     H      0.936930000000     0.070790000000     0.840480000000     0.0626885  
H196     H      0.914840000000     0.007610000000     0.757110000000     0.0492267  
H197     H      0.009730000000     0.941890000000     0.856260000000     0.0687861  
H198     H      0.089520000000     0.025640000000     0.793930000000     0.0799335  
H199     H      0.963760000000     0.089920000000     0.736680000000     0.0593945  
H200     H      0.008040000000     0.196580000000     0.868470000000     0.16684    
H201     H      0.945190000000     0.946010000000     0.335870000000     0.0490046  
H202     H      0.948920000000     0.899510000000     0.253610000000     0.0561843  
H203     H      0.137650000000     0.079230000000     0.356460000000     0.0571107  
H204     H      0.059920000000     0.070890000000     0.279970000000     0.0457075  
H205     H      0.969820000000     0.889340000000     0.361940000000     0.0553413  
H206     H      0.020310000000     0.892630000000     0.277850000000     0.0602512  
H207     H      0.135580000000     0.078280000000     0.255070000000     0.0486327  
H208     H      0.253870000000     0.081730000000     0.368910000000     0.147733   
H209     H      0.724470000000     0.809970000000     0.037170000000     0.0442224  
H210     H      0.725320000000     0.800150000000     0.139610000000     0.0417484  
H211     H      0.755770000000     0.740860000000     0.997160000000     0.044788   
H212     H      0.798020000000     0.686370000000     0.069520000000     0.0537219  
H213     H      0.785760000000     0.886510000000     0.061680000000     0.0457198  
H214     H      0.813620000000     0.828040000000     0.144870000000     0.0615736  
H215     H      0.857680000000     0.760950000000     0.097360000000     0.0773184  
H216     H      0.922720000000     0.819920000000     0.900090000000     0.165205   
H217     H      0.408060000000     0.282190000000     0.052050000000     0.046872   
H218     H      0.310810000000     0.183440000000     0.063150000000     0.0381675  
H219     H      0.308510000000     0.381900000000     0.011680000000     0.0573963  
H220     H      0.295680000000     0.327110000000     0.100270000000     0.0800448  
H221     H      0.382220000000     0.263650000000     0.979780000000     0.0553954  
H222     H      0.271590000000     0.195900000000     0.000130000000     0.058705   
H223     H      0.215680000000     0.294420000000     0.061420000000     0.0631367  
H224     H      0.324130000000     0.376820000000     0.889470000000     0.170668   
H225     H      0.787930000000     0.939470000000     0.206130000000     0.0488442  
H226     H      0.692450000000     0.904560000000     0.138470000000     0.0503458  
H227     H      0.835640000000     0.047110000000     0.228910000000     0.0567834  
H228     H      0.779290000000     0.099100000000     0.176050000000     0.0658615  
H229     H      0.809010000000     0.915430000000     0.147170000000     0.0424248  
H230     H      0.746130000000     0.953790000000     0.083070000000     0.0514936  
H231     H      0.808870000000     0.092110000000     0.110100000000     0.066348   
H232     H      0.964150000000     0.124520000000     0.267380000000     0.160276   
H233     H      0.306150000000     0.132690000000     0.986990000000     0.0376533  
H234     H      0.389330000000     0.147000000000     0.927260000000     0.049108   
H235     H      0.168310000000     0.954450000000     0.962590000000     0.0616147  
H236     H      0.269980000000     0.992590000000     0.015130000000     0.0651387  
H237     H      0.278890000000     0.149270000000     0.917170000000     0.0673739  
H238     H      0.330000000000     0.090410000000     0.877890000000     0.0659015  
H239     H      0.273080000000     0.946930000000     0.958250000000     0.0739178  
H240     H      0.114650000000     0.914860000000     0.813410000000     0.170955   
H241     H      0.146990000000     0.854460000000     0.991680000000     0.0602171  
H242     H      0.092350000000     0.757740000000     0.941340000000     0.052417   
H243     H      0.127020000000     0.823920000000     0.095280000000     0.064141   
H244     H      0.044290000000     0.710490000000     0.112000000000     0.0286643  
H245     H      0.080920000000     0.855430000000     0.948030000000     0.0695218  
H246     H      0.009120000000     0.743020000000     0.952370000000     0.0559884  
H247     H      0.979060000000     0.717550000000     0.072280000000     0.0531033  
H248     H      0.107530000000     0.896030000000     0.215740000000     0.170021   
H249     H      0.001600000000     0.240810000000     0.997950000000     0.0615972  
H250     H      0.927820000000     0.234600000000     0.073700000000     0.0636332  
H251     H      0.041400000000     0.241170000000     0.165660000000     0.0829547  
H252     H      0.068030000000     0.347230000000     0.182320000000     0.0616498  
H253     H      0.065610000000     0.320240000000     0.018270000000     0.0401139  
H254     H      0.952240000000     0.302020000000     0.028550000000     0.0412804  
H255     H      0.107100000000     0.375190000000     0.115430000000     0.0558707  
H256     H      0.158200000000     0.219770000000     0.203240000000     0.156358   
N1       N      0.553650000000     0.519230000000     0.880500000000    -0.162589   
N2       N      0.541600000000     0.527820000000     0.760700000000    -0.180247   
N3       N      0.643330000000     0.554430000000     0.376360000000    -0.167364   
N4       N      0.582770000000     0.541590000000     0.266620000000    -0.168882   
N5       N      0.556450000000     0.862810000000     0.470980000000    -0.168564   
N6       N      0.586530000000     0.763780000000     0.496610000000    -0.177689   
N7       N      0.579810000000     0.342200000000     0.607620000000    -0.143502   
N8       N      0.581690000000     0.223220000000     0.628100000000    -0.171317   
N9       N      0.603750000000     0.054740000000     0.746990000000    -0.161292   
N10      N      0.580860000000     0.057000000000     0.864340000000    -0.166989   
N11      N      0.556510000000     0.081370000000     0.351150000000    -0.161669   
N12      N      0.528920000000     0.023580000000     0.244930000000    -0.173826   
N13      N      0.567120000000     0.743210000000     0.983830000000    -0.167972   
N14      N      0.586570000000     0.870030000000     0.993560000000    -0.151221   
N15      N      0.485450000000     0.308860000000     0.166470000000    -0.153846   
N16      N      0.486710000000     0.198730000000     0.128910000000    -0.175365   
N17      N      0.747150000000     0.260600000000     0.477670000000    -0.142919   
N18      N      0.869180000000     0.385100000000     0.468020000000    -0.179594   
N19      N      0.414480000000     0.840220000000     0.659850000000    -0.165794   
N20      N      0.289290000000     0.728080000000     0.632040000000    -0.173684   
N21      N      0.789950000000     0.587500000000     0.574900000000    -0.159662   
N22      N      0.902090000000     0.568040000000     0.587510000000    -0.1643     
N23      N      0.289150000000     0.576480000000     0.489190000000    -0.169018   
N24      N      0.395240000000     0.577500000000     0.563480000000    -0.173942   
N25      N      0.079890000000     0.516480000000     0.863520000000    -0.162069   
N26      N      0.082210000000     0.529200000000     0.742800000000    -0.171294   
N27      N      0.049790000000     0.575980000000     0.356330000000    -0.174698   
N28      N      0.064040000000     0.523740000000     0.257740000000    -0.17847    
N29      N      0.741850000000     0.226060000000     0.998560000000    -0.161716   
N30      N      0.850950000000     0.353930000000     0.975360000000    -0.170293   
N31      N      0.371310000000     0.834680000000     0.119040000000    -0.170636   
N32      N      0.252510000000     0.714770000000     0.126850000000    -0.177609   
N33      N      0.756240000000     0.558370000000     0.078190000000    -0.174864   
N34      N      0.842030000000     0.508650000000     0.102160000000    -0.16498    
N35      N      0.245880000000     0.526050000000     0.058410000000    -0.175626   
N36      N      0.348160000000     0.508240000000     0.113330000000    -0.175858   
N37      N      0.781040000000     0.753950000000     0.638660000000    -0.164295   
N38      N      0.905930000000     0.870500000000     0.657560000000    -0.1748     
N39      N      0.265570000000     0.253770000000     0.502820000000    -0.172678   
N40      N      0.386440000000     0.375810000000     0.481180000000    -0.164369   
N41      N      0.853980000000     0.976080000000     0.511700000000    -0.164139   
N42      N      0.745910000000     0.986970000000     0.557460000000    -0.153105   
N43      N      0.303110000000     0.109070000000     0.604880000000    -0.179421   
N44      N      0.392020000000     0.085440000000     0.551530000000    -0.173595   
N45      N      0.153980000000     0.785330000000     0.479630000000    -0.143498   
N46      N      0.150060000000     0.899460000000     0.508360000000    -0.1725     
N47      N      0.032930000000     0.319790000000     0.559910000000    -0.17531    
N48      N      0.092200000000     0.244660000000     0.587080000000    -0.172384   
N49      N      0.991810000000     0.022220000000     0.858610000000    -0.166056   
N50      N      0.016910000000     0.036850000000     0.743070000000    -0.171541   
N51      N      0.046680000000     0.987860000000     0.366400000000    -0.170486   
N52      N      0.045510000000     0.985270000000     0.246700000000    -0.177219   
N53      N      0.825190000000     0.834120000000     0.026370000000    -0.145783   
N54      N      0.756480000000     0.737930000000     0.108010000000    -0.188415   
N55      N      0.366610000000     0.336020000000     0.010070000000    -0.169311   
N56      N      0.259390000000     0.233670000000     0.071600000000    -0.175008   
N57      N      0.861760000000     0.015460000000     0.157080000000    -0.152575   
N58      N      0.729710000000     0.005590000000     0.142620000000    -0.148974   
N59      N      0.217670000000     0.055350000000     0.953390000000    -0.154991   
N60      N      0.340910000000     0.048730000000     0.955730000000    -0.170095   
N61      N      0.065650000000     0.843500000000     0.037840000000    -0.139904   
N62      N      0.056190000000     0.723090000000     0.023110000000    -0.17664    
N63      N      0.056870000000     0.248170000000     0.077030000000    -0.168734   
N64      N      0.000310000000     0.323020000000     0.110640000000    -0.177785   
O1       O      0.072870000000     0.167250000000     0.107940000000    -0.478992   
O2       O      0.927360000000     0.924950000000     0.007340000000    -0.396485   
O3       O      0.005650000000     0.071440000000     0.942600000000    -0.436666   
O4       O      0.914570000000     0.985810000000     0.094500000000    -0.358361   
O5       O      0.028200000000     0.995020000000     0.940080000000    -0.409144   
O6       O      0.980410000000     0.059950000000     0.155530000000    -0.374273   
O7       O      0.913760000000     0.876800000000     0.090260000000    -0.371822   
O8       O      0.036730000000     0.163660000000     0.020120000000    -0.418825   
O9       O      0.091780000000     0.032730000000     0.163820000000    -0.46307    
O10      O      0.129410000000     0.012220000000     0.013110000000    -0.376032   
O11      O      0.157550000000     0.176940000000     0.030800000000    -0.503405   
O12      O      0.041410000000     0.916260000000     0.078580000000    -0.377764   
O13      O      0.024060000000     0.900400000000     0.988190000000    -0.365169   
O14      O      0.174300000000     0.142100000000     0.113590000000    -0.420471   
O15      O      0.990470000000     0.954100000000     0.161510000000    -0.39083    
O16      O      0.143690000000     0.094360000000     0.959750000000    -0.37977    
O17      O      0.047620000000     0.050860000000     0.056230000000    -0.560238   
O18      O      0.078230000000     0.054210000000     0.439480000000    -0.453802   
O19      O      0.047130000000     0.144850000000     0.551120000000    -0.412452   
O20      O      0.926570000000     0.935590000000     0.521760000000    -0.405174   
O21      O      0.213100000000     0.178690000000     0.572270000000    -0.43156    
O22      O      0.967890000000     0.034890000000     0.503970000000    -0.421159   
O23      O      0.167960000000     0.157990000000     0.486840000000    -0.430892   
O24      O      0.115900000000     0.169850000000     0.625980000000    -0.413954   
O25      O      0.026260000000     0.951710000000     0.457390000000    -0.431369   
O26      O      0.225840000000     0.093380000000     0.535440000000    -0.48162    
O27      O      0.941640000000     0.970540000000     0.615500000000    -0.414174   
O28      O      0.096690000000     0.939190000000     0.555240000000    -0.431765   
O29      O      0.091470000000     0.050560000000     0.676780000000    -0.416635   
O30      O      0.017570000000     0.080320000000     0.656230000000    -0.439503   
O31      O      0.148180000000     0.991490000000     0.481390000000    -0.422656   
O32      O      0.191320000000     0.059990000000     0.619700000000    -0.420175   
O33      O      0.005430000000     0.928680000000     0.615290000000    -0.440292   
O34      O      0.079520000000     0.047350000000     0.557660000000    -0.513757   
O35      O      0.962720000000     0.402170000000     0.004100000000    -0.462615   
O36      O      0.012450000000     0.619310000000     0.045280000000    -0.501786   
O37      O      0.874820000000     0.436830000000     0.131730000000    -0.381751   
O38      O      0.075740000000     0.563670000000     0.942280000000    -0.462765   
O39      O      0.951080000000     0.538460000000     0.115530000000    -0.564872   
O40      O      0.074830000000     0.473410000000     0.954160000000    -0.400388   
O41      O      0.105160000000     0.664580000000     0.003500000000    -0.418741   
O42      O      0.907040000000     0.446660000000     0.026880000000    -0.424734   
O43      O      0.136050000000     0.484740000000     0.064830000000    -0.528624   
O44      O      0.071750000000     0.573840000000     0.173880000000    -0.498523   
O45      O      0.934590000000     0.370320000000     0.103160000000    -0.377002   
O46      O      0.193390000000     0.633820000000     0.066100000000    -0.474369   
O47      O      0.137000000000     0.666410000000     0.109230000000    -0.440428   
O48      O      0.038600000000     0.427440000000     0.110230000000    -0.487681   
O49      O      0.181810000000     0.553100000000     0.998130000000    -0.426067   
O50      O      0.996840000000     0.473210000000     0.178370000000    -0.394977   
O51      O      0.052160000000     0.527090000000     0.059050000000    -0.543029   
O52      O      0.984770000000     0.429480000000     0.477210000000    -0.450373   
O53      O      0.102370000000     0.684940000000     0.521780000000    -0.416961   
O54      O      0.963900000000     0.524030000000     0.626790000000    -0.407078   
O55      O      0.098200000000     0.618340000000     0.443360000000    -0.382423   
O56      O      0.999060000000     0.582870000000     0.554320000000    -0.423099   
O57      O      0.076760000000     0.522850000000     0.423510000000    -0.512178   
O58      O      0.204390000000     0.721680000000     0.492600000000    -0.355129   
O59      O      0.934630000000     0.454380000000     0.536790000000    -0.45844    
O60      O      0.175240000000     0.516050000000     0.486630000000    -0.486559   
O61      O      0.078510000000     0.582660000000     0.660540000000    -0.398372   
O62      O      0.003110000000     0.393860000000     0.581060000000    -0.438595   
O63      O      0.224070000000     0.645070000000     0.571780000000    -0.419625   
O64      O      0.174860000000     0.680920000000     0.616650000000    -0.444485   
O65      O      0.093280000000     0.425380000000     0.536890000000    -0.487973   
O66      O      0.218540000000     0.618290000000     0.473150000000    -0.39411    
O67      O      0.058070000000     0.484380000000     0.656660000000    -0.457515   
O68      O      0.088840000000     0.543910000000     0.545540000000    -0.506167   
O69      O      0.391970000000     0.008730000000     0.016180000000    -0.448971   
O70      O      0.648040000000     0.982970000000     0.998500000000    -0.326666   
O71      O      0.566190000000     0.104410000000     0.939340000000    -0.439476   
O72      O      0.483520000000     0.913200000000     0.123370000000    -0.381201   
O73      O      0.555880000000     0.009770000000     0.951940000000    -0.375487   
O74      O      0.413430000000     0.928530000000     0.069850000000    -0.455905   
O75      O      0.545920000000     0.929270000000     0.030490000000    -0.411471   
O76      O      0.456750000000     0.103790000000     0.979900000000    -0.435141   
O77      O      0.466870000000     0.006160000000     0.161880000000    -0.452568   
O78      O      0.676110000000     0.113240000000     0.995020000000    -0.335867   
O79      O      0.539990000000     0.166390000000     0.073090000000    -0.470182   
O80      O      0.613100000000     0.951330000000     0.129120000000    -0.352659   
O81      O      0.668960000000     0.048780000000     0.094910000000    -0.382817   
O82      O      0.443790000000     0.092590000000     0.105150000000    -0.447902   
O83      O      0.573760000000     0.032950000000     0.159710000000    -0.393697   
O84      O      0.639530000000     0.165890000000     0.037160000000    -0.449429   
O85      O      0.529790000000     0.045270000000     0.052730000000    -0.519219   
O86      O      0.432450000000     0.019810000000     0.539080000000    -0.435294   
O87      O      0.621590000000     0.975000000000     0.473620000000    -0.389478   
O88      O      0.534230000000     0.073400000000     0.444860000000    -0.410754   
O89      O      0.520790000000     0.918760000000     0.635380000000    -0.398914   
O90      O      0.625220000000     0.079050000000     0.425000000000    -0.381264   
O91      O      0.434780000000     0.929980000000     0.606320000000    -0.419771   
O92      O      0.552000000000     0.924650000000     0.537290000000    -0.466474   
O93      O      0.495660000000     0.120240000000     0.516800000000    -0.370058   
O94      O      0.528040000000     0.025820000000     0.673190000000    -0.464179   
O95      O      0.696880000000     0.157500000000     0.517050000000    -0.389634   
O96      O      0.615810000000     0.160600000000     0.585940000000    -0.410171   
O97      O      0.651690000000     0.952890000000     0.611430000000    -0.366422   
O98      O      0.695010000000     0.047500000000     0.569650000000    -0.447516   
O99      O      0.515650000000     0.113920000000     0.618490000000    -0.434201   
O100     O      0.628660000000     0.041470000000     0.657440000000    -0.398788   
O101     O      0.630130000000     0.193360000000     0.479170000000    -0.393491   
O102     O      0.554090000000     0.033470000000     0.552710000000    -0.593727   
O103     O      0.480360000000     0.394120000000     0.021020000000    -0.441378   
O104     O      0.526170000000     0.659360000000     0.050190000000    -0.41783    
O105     O      0.419100000000     0.472280000000     0.139770000000    -0.420093   
O106     O      0.579730000000     0.578300000000     0.958750000000    -0.483806   
O107     O      0.458030000000     0.572770000000     0.120480000000    -0.520761   
O108     O      0.575560000000     0.486640000000     0.969940000000    -0.366928   
O109     O      0.617100000000     0.682520000000     0.009900000000    -0.440199   
O110     O      0.425660000000     0.434900000000     0.048020000000    -0.441459   
O111     O      0.644250000000     0.508060000000     0.088820000000    -0.435471   
O112     O      0.562500000000     0.588600000000     0.187570000000    -0.45277    
O113     O      0.439890000000     0.374660000000     0.142170000000    -0.368134   
O114     O      0.683830000000     0.637050000000     0.085470000000    -0.512669   
O115     O      0.641720000000     0.688110000000     0.118920000000    -0.4658     
O116     O      0.544780000000     0.409000000000     0.124220000000    -0.41303    
O117     O      0.680070000000     0.562060000000     0.014120000000    -0.440815   
O118     O      0.540400000000     0.489020000000     0.182610000000    -0.394521   
O119     O      0.547820000000     0.543860000000     0.071820000000    -0.506723   
O120     O      0.504540000000     0.436750000000     0.494890000000    -0.386442   
O121     O      0.617900000000     0.716000000000     0.567460000000    -0.453757   
O122     O      0.446560000000     0.524530000000     0.612600000000    -0.387671   
O123     O      0.602670000000     0.582970000000     0.446510000000    -0.442871   
O124     O      0.505670000000     0.625520000000     0.588860000000    -0.507913   
O125     O      0.631660000000     0.512760000000     0.467560000000    -0.357768   
O126     O      0.601710000000     0.677900000000     0.484620000000    -0.430466   
O127     O      0.441760000000     0.445250000000     0.551420000000    -0.470234   
O128     O      0.675860000000     0.532190000000     0.585480000000    -0.386681   
O129     O      0.549400000000     0.591640000000     0.683590000000    -0.4591     
O130     O      0.539290000000     0.415150000000     0.607670000000    -0.409124   
O131     O      0.713620000000     0.698570000000     0.562340000000    -0.440191   
O132     O      0.673780000000     0.667870000000     0.646320000000    -0.437672   
O133     O      0.602210000000     0.420680000000     0.539760000000    -0.374011   
O134     O      0.715580000000     0.605380000000     0.519810000000    -0.437662   
O135     O      0.560190000000     0.510360000000     0.672590000000    -0.449505   
O136     O      0.579400000000     0.566860000000     0.560350000000    -0.50612    
O137     O      0.515920000000     0.343200000000     0.827430000000    -0.181931   
O138     O      0.453190000000     0.373750000000     0.900870000000    -0.162637   
O139     O      0.577730000000     0.388660000000     0.929100000000    -0.26225    
O140     O      0.646560000000     0.392940000000     0.332530000000    -0.159833   
O141     O      0.562880000000     0.391050000000     0.408170000000    -0.145867   
O142     O      0.700380000000     0.463020000000     0.426050000000    -0.253929   
O143     O      0.651600000000     0.876270000000     0.324240000000    -0.178592   
O144     O      0.724460000000     0.920610000000     0.420700000000    -0.172566   
O145     O      0.651670000000     0.973760000000     0.373750000000    -0.258268   
O146     O      0.778190000000     0.396260000000     0.625890000000    -0.187609   
O147     O      0.702190000000     0.442420000000     0.662210000000    -0.143845   
O148     O      0.732460000000     0.457080000000     0.551660000000    -0.25249    
O149     O      0.675170000000     0.944630000000     0.824070000000    -0.170776   
O150     O      0.720450000000     0.031360000000     0.738700000000    -0.137014   
O151     O      0.611410000000     0.911900000000     0.720970000000    -0.242032   
O152     O      0.719200000000     0.211840000000     0.262080000000    -0.155219   
O153     O      0.736400000000     0.128100000000     0.328140000000    -0.135165   
O154     O      0.701000000000     0.210150000000     0.372630000000    -0.255488   
O155     O      0.369960000000     0.701890000000     0.958580000000    -0.166512   
O156     O      0.416200000000     0.672800000000     0.055900000000    -0.174405   
O157     O      0.423890000000     0.624210000000     0.955440000000    -0.256446   
O158     O      0.634420000000     0.302070000000     0.262940000000    -0.152957   
O159     O      0.516300000000     0.193600000000     0.245200000000    -0.173723   
O160     O      0.517040000000     0.293560000000     0.292510000000    -0.25489    
O161     O      0.871170000000     0.190600000000     0.496390000000    -0.183929   
O162     O      0.867260000000     0.228590000000     0.389390000000    -0.140495   
O163     O      0.751950000000     0.140710000000     0.434110000000    -0.233225   
O164     O      0.299410000000     0.866890000000     0.768640000000    -0.159429   
O165     O      0.320620000000     0.919840000000     0.664890000000    -0.17153    
O166     O      0.428150000000     0.950190000000     0.739680000000    -0.272884   
O167     O      0.788120000000     0.539340000000     0.738830000000    -0.162449   
O168     O      0.702870000000     0.571400000000     0.684780000000    -0.137904   
O169     O      0.823990000000     0.663930000000     0.725310000000    -0.278867   
O170     O      0.417620000000     0.522940000000     0.465400000000    -0.1583     
O171     O      0.367830000000     0.581940000000     0.397060000000    -0.172158   
O172     O      0.300670000000     0.453000000000     0.402590000000    -0.259756   
O173     O      0.986400000000     0.330320000000     0.808750000000    -0.176897   
O174     O      0.943500000000     0.392240000000     0.870360000000    -0.172942   
O175     O      0.035700000000     0.359920000000     0.916440000000    -0.270047   
O176     O      0.195140000000     0.742400000000     0.278960000000    -0.185171   
O177     O      0.217440000000     0.690930000000     0.374940000000    -0.150005   
O178     O      0.125680000000     0.731650000000     0.369970000000    -0.252069   
O179     O      0.883120000000     0.196700000000     0.923890000000    -0.183447   
O180     O      0.750980000000     0.147200000000     0.897270000000    -0.159378   
O181     O      0.791800000000     0.109710000000     0.995050000000    -0.246205   
O182     O      0.190380000000     0.781290000000     0.052670000000    -0.17313    
O183     O      0.310340000000     0.847620000000     0.007920000000    -0.139967   
O184     O      0.264440000000     0.908530000000     0.070310000000    -0.288801   
O185     O      0.774060000000     0.552350000000     0.252510000000    -0.192      
O186     O      0.657940000000     0.471150000000     0.197220000000    -0.153154   
O187     O      0.706620000000     0.600880000000     0.190610000000    -0.25906    
O188     O      0.326850000000     0.489620000000     0.926460000000    -0.163013   
O189     O      0.279750000000     0.570160000000     0.933550000000    -0.13961    
O190     O      0.191270000000     0.442090000000     0.927270000000    -0.258824   
O191     O      0.740980000000     0.837560000000     0.766470000000    -0.169221   
O192     O      0.727090000000     0.720150000000     0.758760000000    -0.160223   
O193     O      0.641630000000     0.750130000000     0.697170000000    -0.286506   
O194     O      0.305060000000     0.331890000000     0.353850000000    -0.152316   
O195     O      0.186730000000     0.256160000000     0.402340000000    -0.133629   
O196     O      0.244400000000     0.202160000000     0.346630000000    -0.27596    
O197     O      0.951520000000     0.133540000000     0.433740000000    -0.139433   
O198     O      0.821870000000     0.082540000000     0.395310000000    -0.152111   
O199     O      0.883020000000     0.012490000000     0.392760000000    -0.259395   
O200     O      0.321290000000     0.005950000000     0.739740000000    -0.15071    
O201     O      0.214130000000     0.954080000000     0.664390000000    -0.139761   
O202     O      0.242470000000     0.059310000000     0.723750000000    -0.241567   
O203     O      0.953760000000     0.737180000000     0.446650000000    -0.196802   
O204     O      0.993990000000     0.696590000000     0.540640000000    -0.180706   
O205     O      0.007390000000     0.660700000000     0.436130000000    -0.243832   
O206     O      0.059330000000     0.278180000000     0.399770000000    -0.142975   
O207     O      0.150900000000     0.390360000000     0.445510000000    -0.180326   
O208     O      0.021750000000     0.362500000000     0.425330000000    -0.300664   
O209     O      0.066350000000     0.191900000000     0.772140000000    -0.171586   
O210     O      0.123010000000     0.144010000000     0.847140000000    -0.151339   
O211     O      0.044480000000     0.188430000000     0.883200000000    -0.26431    
O212     O      0.195010000000     0.009570000000     0.272240000000    -0.170231   
O213     O      0.121290000000     0.921440000000     0.350780000000    -0.171469   
O214     O      0.227630000000     0.036850000000     0.383200000000    -0.275364   
O215     O      0.813560000000     0.695650000000     0.930510000000    -0.18203    
O216     O      0.922050000000     0.756690000000     0.002310000000    -0.1842     
O217     O      0.891950000000     0.825590000000     0.923370000000    -0.250414   
O218     O      0.171180000000     0.273960000000     0.954230000000    -0.168777   
O219     O      0.262560000000     0.247790000000     0.915940000000    -0.164267   
O220     O      0.277250000000     0.364600000000     0.897540000000    -0.258389   
O221     O      0.902810000000     0.192830000000     0.210290000000    -0.161756   
O222     O      0.941660000000     0.154980000000     0.122270000000    -0.18036    
O223     O      0.984250000000     0.141080000000     0.230310000000    -0.267987   
O224     O      0.255540000000     0.961040000000     0.846450000000    -0.149251   
O225     O      0.206060000000     0.041880000000     0.833630000000    -0.159636   
O226     O      0.121130000000     0.915310000000     0.855030000000    -0.279846   
O227     O      0.053660000000     0.772690000000     0.202810000000    -0.189743   
O228     O      0.971020000000     0.809460000000     0.150250000000    -0.156598   
O229     O      0.103960000000     0.898250000000     0.174050000000    -0.252981   
O230     O      0.163280000000     0.326820000000     0.229440000000    -0.159255   
O231     O      0.215450000000     0.366040000000     0.128710000000    -0.181597   
O232     O      0.179950000000     0.245480000000     0.169120000000    -0.266571   
S1       S      0.527760000000     0.394460000000     0.876890000000     0.289983   
S2       S      0.635690000000     0.436320000000     0.377670000000     0.293117   
S3       S      0.653100000000     0.905500000000     0.386270000000     0.285636   
S4       S      0.714750000000     0.409150000000     0.608600000000     0.28591    
S5       S      0.651690000000     0.972080000000     0.766910000000     0.287925   
S6       S      0.691630000000     0.164410000000     0.318670000000     0.301092   
S7       S      0.428240000000     0.686740000000     0.987590000000     0.289753   
S8       S      0.553310000000     0.272900000000     0.244760000000     0.293841   
S9       S      0.825650000000     0.206430000000     0.448420000000     0.305138   
S10      S      0.351670000000     0.892320000000     0.716150000000     0.290045   
S11      S      0.783170000000     0.592030000000     0.694260000000     0.287607   
S12      S      0.346880000000     0.519630000000     0.440660000000     0.288231   
S13      S      0.009290000000     0.384800000000     0.858090000000     0.294699   
S14      S      0.158970000000     0.696670000000     0.334670000000     0.288754   
S15      S      0.808360000000     0.171470000000     0.950150000000     0.291076   
S16      S      0.267630000000     0.841490000000     0.063710000000     0.293655   
S17      S      0.726470000000     0.542920000000     0.194150000000     0.293393   
S18      S      0.267440000000     0.498500000000     0.953450000000     0.285156   
S19      S      0.721420000000     0.778180000000     0.723200000000     0.291876   
S20      S      0.259830000000     0.262870000000     0.388280000000     0.286068   
S21      S      0.876800000000     0.066630000000     0.429970000000     0.294785   
S22      S      0.275820000000     0.021900000000     0.691830000000     0.294281   
S23      S      0.010730000000     0.719290000000     0.473980000000     0.293878   
S24      S      0.070990000000     0.332340000000     0.446160000000     0.291811   
S25      S      0.054570000000     0.149370000000     0.831510000000     0.292302   
S26      S      0.163360000000     0.999300000000     0.335120000000     0.286377   
S27      S      0.860110000000     0.761540000000     0.967640000000     0.284489   
S28      S      0.252520000000     0.303350000000     0.944370000000     0.293152   
S29      S      0.921570000000     0.139860000000     0.188390000000     0.289004   
S30      S      0.199250000000     0.977840000000     0.868330000000     0.28912    
S31      S      0.049130000000     0.822400000000     0.154380000000     0.290236   
S32      S      0.159160000000     0.302900000000     0.164380000000     0.286877   


