data_structure

_audit_creation_method RASPA-1.0
_audit_creation_date 2023-6-4
_audit_author_name 'Poobodin Mano'

_cell_length_a    23.3421
_cell_length_b    23.583
_cell_length_c    24.0218
_cell_angle_alpha 87.1374
_cell_angle_beta  93.8173
_cell_angle_gamma 120.433
_cell_volume      11374.2

_symmetry_cell_setting          triclinic
_symmetry_space_group_name_Hall 'P 1'
_symmetry_space_group_name_H-M  'P 1'
_symmetry_Int_Tables_number     1

_symmetry_equiv_pos_as_xyz 'x,y,z'

loop_
_atom_site_label
_atom_site_type_symbol
_atom_site_fract_x
_atom_site_fract_y
_atom_site_fract_z
_atom_site_charge
C1       C      0.083310000000     0.198110000000     0.002060000000     0.385652   
C2       C      0.930670000000     0.894340000000     0.005120000000     0.422771   
C3       C      0.053870000000     0.035330000000     0.921210000000     0.452007   
C4       C      0.936420000000     0.065220000000     0.106380000000     0.455313   
C5       C      0.046190000000     0.038360000000     0.188960000000     0.452685   
C6       C      0.199850000000     0.073170000000     0.000120000000     0.448041   
C7       C      0.181350000000     0.203490000000     0.098600000000     0.382065   
C8       C      0.045210000000     0.899500000000     0.110380000000     0.426814   
C9       C      0.049850000000     0.052800000000     0.417640000000     0.466721   
C10      C      0.064450000000     0.209210000000     0.600710000000     0.473027   
C11      C      0.905900000000     0.012410000000     0.519210000000     0.425077   
C12      C      0.224910000000     0.203070000000     0.515580000000     0.440215   
C13      C      0.210780000000     0.067470000000     0.595940000000     0.462847   
C14      C      0.963830000000     0.937530000000     0.620710000000     0.451363   
C15      C      0.120640000000     0.961150000000     0.478420000000     0.422055   
C16      C      0.067060000000     0.084870000000     0.695220000000     0.468272   
C17      C      0.948630000000     0.401080000000     0.009740000000     0.475865   
C18      C      0.102490000000     0.718090000000     0.031580000000     0.387646   
C19      C      0.916050000000     0.518820000000     0.091770000000     0.455672   
C20      C      0.093040000000     0.574900000000     0.932140000000     0.484089   
C21      C      0.234770000000     0.607560000000     0.035520000000     0.505583   
C22      C      0.041550000000     0.531260000000     0.203710000000     0.452626   
C23      C      0.071810000000     0.399030000000     0.095190000000     0.467512   
C24      C      0.175730000000     0.689310000000     0.142440000000     0.458456   
C25      C      0.966360000000     0.458790000000     0.504640000000     0.461605   
C26      C      0.126760000000     0.732150000000     0.503550000000     0.471231   
C27      C      0.938170000000     0.557850000000     0.605510000000     0.401527   
C28      C      0.113310000000     0.567260000000     0.429190000000     0.468911   
C29      C      0.234840000000     0.565700000000     0.532720000000     0.50349    
C30      C      0.078920000000     0.588570000000     0.701000000000     0.487756   
C31      C      0.042010000000     0.427220000000     0.625660000000     0.426416   
C32      C      0.238680000000     0.716730000000     0.609520000000     0.481317   
C33      C      0.431670000000     0.067600000000     0.009800000000     0.452068   
C34      C      0.587090000000     0.918190000000     0.019910000000     0.44402    
C35      C      0.583450000000     0.072440000000     0.928780000000     0.480501   
C36      C      0.414000000000     0.916470000000     0.132520000000     0.472969   
C37      C      0.561860000000     0.041870000000     0.199190000000     0.487946   
C38      C      0.718870000000     0.166350000000     0.009130000000     0.375083   
C39      C      0.519410000000     0.163910000000     0.119820000000     0.379058   
C40      C      0.690370000000     0.039590000000     0.122700000000     0.458209   
C41      C      0.431310000000     0.064650000000     0.527790000000     0.457194   
C42      C      0.567150000000     0.948200000000     0.511930000000     0.466232   
C43      C      0.600890000000     0.104880000000     0.422050000000     0.504341   
C44      C      0.477180000000     0.919430000000     0.651970000000     0.437015   
C45      C      0.593120000000     0.077690000000     0.702450000000     0.481861   
C46      C      0.725670000000     0.229890000000     0.513350000000     0.518528   
C47      C      0.547170000000     0.196730000000     0.612550000000     0.478875   
C48      C      0.701750000000     0.032510000000     0.602670000000     0.436509   
C49      C      0.412840000000     0.423150000000     0.032210000000     0.46526    
C50      C      0.581600000000     0.688110000000     0.995480000000     0.44067    
C51      C      0.466940000000     0.624760000000     0.120970000000     0.399795   
C52      C      0.589140000000     0.555750000000     0.925280000000     0.47135    
C53      C      0.693180000000     0.525970000000     0.033960000000     0.484704   
C54      C      0.571350000000     0.568950000000     0.200810000000     0.487876   
C55      C      0.530840000000     0.399380000000     0.112110000000     0.467037   
C56      C      0.698580000000     0.709050000000     0.101530000000     0.413357   
C57      C      0.470170000000     0.427830000000     0.508100000000     0.460836   
C58      C      0.610470000000     0.746400000000     0.555790000000     0.380507   
C59      C      0.467870000000     0.572030000000     0.582620000000     0.480414   
C60      C      0.607500000000     0.575290000000     0.429170000000     0.45605    
C61      C      0.727530000000     0.580470000000     0.528060000000     0.457101   
C62      C      0.581180000000     0.577180000000     0.695820000000     0.456575   
C63      C      0.539380000000     0.412680000000     0.632010000000     0.384147   
C64      C      0.741580000000     0.714590000000     0.614000000000     0.503461   
C65      C      0.616700000000     0.623250000000     0.842780000000     0.0360035  
C66      C      0.555240000000     0.507470000000     0.836600000000     0.039109   
C67      C      0.555540000000     0.512910000000     0.778670000000     0.0361896  
C68      C      0.611330000000     0.628660000000     0.784380000000     0.0378325  
C69      C      0.611990000000     0.630080000000     0.283850000000     0.0339282  
C70      C      0.579340000000     0.517500000000     0.286200000000     0.0349415  
C71      C      0.587460000000     0.518610000000     0.344350000000     0.032904   
C72      C      0.617080000000     0.630390000000     0.341930000000     0.0344643  
C73      C      0.611390000000     0.884820000000     0.480220000000     0.0368317  
C74      C      0.521310000000     0.836300000000     0.539330000000     0.0411724  
C75      C      0.537800000000     0.788740000000     0.556360000000     0.035898   
C76      C      0.624430000000     0.833790000000     0.493600000000     0.0286381  
C77      C      0.484140000000     0.240640000000     0.646580000000     0.03288    
C78      C      0.601310000000     0.303660000000     0.647870000000     0.0337487  
C79      C      0.598240000000     0.359030000000     0.658770000000     0.029241   
C80      C      0.481030000000     0.297780000000     0.653360000000     0.0272562  
C81      C      0.610910000000     0.038960000000     0.847730000000     0.037946   
C82      C      0.582140000000     0.121860000000     0.841090000000     0.0340839  
C83      C      0.590160000000     0.127170000000     0.784030000000     0.0361748  
C84      C      0.620390000000     0.045350000000     0.790470000000     0.0353308  
C85      C      0.557240000000     0.102390000000     0.273020000000     0.0360918  
C86      C      0.598400000000     0.029920000000     0.291600000000     0.0341563  
C87      C      0.609580000000     0.047290000000     0.347730000000     0.0350629  
C88      C      0.563840000000     0.116000000000     0.329760000000     0.0363859  
C89      C      0.642530000000     0.865130000000     0.984500000000     0.0312764  
C90      C      0.526580000000     0.806850000000     0.992480000000     0.0328499  
C91      C      0.524470000000     0.747600000000     0.984660000000     0.0366984  
C92      C      0.640150000000     0.804930000000     0.975980000000     0.0352479  
C93      C      0.582260000000     0.278630000000     0.132760000000     0.026182   
C94      C      0.466440000000     0.224260000000     0.142510000000     0.0266146  
C95      C      0.469460000000     0.285720000000     0.141450000000     0.0328335  
C96      C      0.585030000000     0.338860000000     0.130950000000     0.0340449  
C97      C      0.847220000000     0.405940000000     0.494600000000     0.034446   
C98      C      0.900590000000     0.344380000000     0.489450000000     0.0333345  
C99      C      0.840420000000     0.286370000000     0.496490000000     0.0371522  
C100     C      0.785650000000     0.347060000000     0.498540000000     0.037198   
C101     C      0.349120000000     0.750720000000     0.642690000000     0.0360434  
C102     C      0.301020000000     0.814840000000     0.660350000000     0.0351495  
C103     C      0.364040000000     0.868020000000     0.672110000000     0.0373324  
C104     C      0.412020000000     0.803280000000     0.656790000000     0.0331659  
C105     C      0.842680000000     0.621290000000     0.527850000000     0.0359095  
C106     C      0.769590000000     0.514140000000     0.562550000000     0.0372768  
C107     C      0.822470000000     0.509850000000     0.587100000000     0.0300845  
C108     C      0.895720000000     0.617750000000     0.553880000000     0.0332824  
C109     C      0.292620000000     0.517870000000     0.578610000000     0.0362218  
C110     C      0.344960000000     0.602510000000     0.510630000000     0.0365219  
C111     C      0.404390000000     0.605070000000     0.524780000000     0.0346563  
C112     C      0.351990000000     0.519670000000     0.592170000000     0.0334948  
C113     C      0.064230000000     0.523570000000     0.844000000000     0.0348244  
C114     C      0.106460000000     0.637800000000     0.847600000000     0.0348552  
C115     C      0.106670000000     0.641590000000     0.789050000000     0.0350398  
C116     C      0.062470000000     0.527020000000     0.785810000000     0.0362902  
C117     C      0.062370000000     0.491320000000     0.291590000000     0.0334653  
C118     C      0.068170000000     0.594200000000     0.285600000000     0.0318354  
C119     C      0.086830000000     0.603280000000     0.342270000000     0.0345612  
C120     C      0.080060000000     0.499970000000     0.348730000000     0.0337179  
C121     C      0.892430000000     0.289140000000     0.979150000000     0.0338749  
C122     C      0.832610000000     0.341820000000     0.995990000000     0.0357728  
C123     C      0.774750000000     0.281660000000     0.000410000000     0.029295   
C124     C      0.833130000000     0.227590000000     0.982780000000     0.0281228  
C125     C      0.292000000000     0.744610000000     0.158600000000     0.0351906  
C126     C      0.237570000000     0.805020000000     0.163250000000     0.0347246  
C127     C      0.299220000000     0.864500000000     0.158400000000     0.0347173  
C128     C      0.352350000000     0.802740000000     0.153530000000     0.0381448  
C129     C      0.834060000000     0.505290000000     0.021990000000     0.0322769  
C130     C      0.811240000000     0.497470000000     0.117430000000     0.0269293  
C131     C      0.755100000000     0.502180000000     0.102460000000     0.0356383  
C132     C      0.774170000000     0.502900000000     0.006890000000     0.029453   
C133     C      0.294060000000     0.562760000000     0.084130000000     0.0365412  
C134     C      0.350570000000     0.676770000000     0.064520000000     0.0325161  
C135     C      0.409020000000     0.681900000000     0.090730000000     0.0293076  
C136     C      0.350720000000     0.568130000000     0.110820000000     0.0371486  
C137     C      0.862940000000     0.871350000000     0.667870000000     0.0330754  
C138     C      0.917110000000     0.822140000000     0.629370000000     0.0303659  
C139     C      0.857400000000     0.762550000000     0.626220000000     0.037706   
C140     C      0.803540000000     0.810280000000     0.667690000000     0.0335821  
C141     C      0.290170000000     0.319900000000     0.510290000000     0.0306662  
C142     C      0.335730000000     0.257770000000     0.481590000000     0.0284008  
C143     C      0.398940000000     0.315500000000     0.480430000000     0.0319718  
C144     C      0.352350000000     0.377350000000     0.507610000000     0.034628   
C145     C      0.856010000000     0.073730000000     0.539820000000     0.0145912  
C146     C      0.797850000000     0.959380000000     0.558060000000     0.0282904  
C147     C      0.747200000000     0.965090000000     0.581350000000     0.0291793  
C148     C      0.807320000000     0.079690000000     0.564410000000     0.0210834  
C149     C      0.322190000000     0.122860000000     0.567630000000     0.0371829  
C150     C      0.263660000000     0.007240000000     0.575110000000     0.0364477  
C151     C      0.318550000000     0.006260000000     0.555380000000     0.0274481  
C152     C      0.374000000000     0.121440000000     0.543210000000     0.0373056  
C153     C      0.065290000000     0.845320000000     0.476920000000     0.0343679  
C154     C      0.181160000000     0.905040000000     0.467130000000     0.029258   
C155     C      0.182570000000     0.846040000000     0.474740000000     0.0321407  
C156     C      0.066560000000     0.787200000000     0.483880000000     0.029045   
C157     C      0.096360000000     0.367360000000     0.649520000000     0.0251529  
C158     C      0.988350000000     0.312320000000     0.607150000000     0.0275278  
C159     C      0.996650000000     0.258830000000     0.597010000000     0.0325409  
C160     C      0.103530000000     0.313080000000     0.641630000000     0.0327288  
C161     C      0.083090000000     0.019550000000     0.832890000000     0.0356262  
C162     C      0.014970000000     0.066270000000     0.838070000000     0.0357667  
C163     C      0.018000000000     0.078450000000     0.780560000000     0.0347545  
C164     C      0.089800000000     0.035840000000     0.776020000000     0.0335724  
C165     C      0.101890000000     0.091620000000     0.274070000000     0.036843   
C166     C      0.991100000000     0.003530000000     0.274370000000     0.0349376  
C167     C      0.990110000000     0.010780000000     0.331490000000     0.0336078  
C168     C      0.101250000000     0.098150000000     0.331550000000     0.0366891  
C169     C      0.859040000000     0.782500000000     0.034920000000     0.0353295  
C170     C      0.821280000000     0.858230000000     0.031400000000     0.00917134 
C171     C      0.766230000000     0.814940000000     0.061400000000     0.0311549  
C172     C      0.803000000000     0.738370000000     0.064540000000     0.00825597 
C173     C      0.345690000000     0.307750000000     0.045300000000     0.0384883  
C174     C      0.307570000000     0.376290000000     0.074560000000     0.0290575  
C175     C      0.251320000000     0.321210000000     0.096480000000     0.0268256  
C176     C      0.290590000000     0.253570000000     0.067490000000     0.0321039  
C177     C      0.873500000000     0.116180000000     0.127650000000     0.0354044  
C178     C      0.822920000000     0.000920000000     0.124540000000     0.0378931  
C179     C      0.760820000000     0.994090000000     0.130670000000     0.0318181  
C180     C      0.809820000000     0.109400000000     0.129750000000     0.0331101  
C181     C      0.313260000000     0.124890000000     0.971520000000     0.0333139  
C182     C      0.255570000000     0.013610000000     0.000310000000     0.0386362  
C183     C      0.314060000000     0.011400000000     0.002860000000     0.0313454  
C184     C      0.373100000000     0.122910000000     0.974720000000     0.0314268  
C185     C      0.138000000000     0.824780000000     0.065770000000     0.0286669  
C186     C      0.024370000000     0.743890000000     0.065230000000     0.0224241  
C187     C      0.009610000000     0.787290000000     0.090240000000     0.0333026  
C188     C      0.123270000000     0.867570000000     0.091220000000     0.0160606  
C189     C      0.020210000000     0.241570000000     0.032960000000     0.0324773  
C190     C      0.132140000000     0.314050000000     0.012680000000     0.0290691  
C191     C      0.130670000000     0.363300000000     0.042050000000     0.0261829  
C192     C      0.019080000000     0.289730000000     0.063010000000     0.0402453  
Co1      Co     0.073510000000     0.114030000000     0.092090000000     0.924671   
Co2      Co     0.078110000000     0.972700000000     0.024430000000     1.10726    
Co3      Co     0.107000000000     0.114130000000     0.013470000000     0.919842   
Co4      Co     0.965340000000     0.967430000000     0.087420000000     1.11293    
Co5      Co     0.128920000000     0.055900000000     0.511550000000     1.0495     
Co6      Co     0.995310000000     0.078810000000     0.589570000000     1.08536    
Co7      Co     0.003460000000     0.976340000000     0.517500000000     0.969565   
Co8      Co     0.151680000000     0.150240000000     0.609300000000     1.08473    
Co9      Co     0.099710000000     0.489730000000     0.022430000000     1.17408    
Co10     Co     0.042300000000     0.611520000000     0.098220000000     0.906917   
Co11     Co     0.989560000000     0.458080000000     0.112210000000     1.10161    
Co12     Co     0.136020000000     0.635540000000     0.042680000000     1.005      
Co13     Co     0.106530000000     0.502440000000     0.542450000000     1.10655    
Co14     Co     0.091620000000     0.658850000000     0.598730000000     1.02459    
Co15     Co     0.012610000000     0.528250000000     0.597210000000     1.04439    
Co16     Co     0.186610000000     0.651640000000     0.512100000000     1.13916    
Co17     Co     0.497520000000     0.055120000000     0.098990000000     1.09054    
Co18     Co     0.632600000000     0.059500000000     0.029440000000     1.0892     
Co19     Co     0.575130000000     0.131470000000     0.027260000000     0.799458   
Co20     Co     0.545270000000     0.949960000000     0.112290000000     1.15097    
Co21     Co     0.501270000000     0.058850000000     0.614400000000     1.02123    
Co22     Co     0.670620000000     0.091970000000     0.524820000000     1.14677    
Co23     Co     0.578500000000     0.162860000000     0.514400000000     1.10292    
Co24     Co     0.567550000000     0.999800000000     0.607720000000     1.03214    
Co25     Co     0.556940000000     0.471690000000     0.013940000000     1.10206    
Co26     Co     0.558640000000     0.628230000000     0.094720000000     1.05433    
Co27     Co     0.483680000000     0.497620000000     0.113320000000     1.0152     
Co28     Co     0.660620000000     0.621420000000     0.033060000000     1.06524    
Co29     Co     0.604870000000     0.498310000000     0.536440000000     0.959395   
Co30     Co     0.602150000000     0.653500000000     0.594440000000     1.19053    
Co31     Co     0.536170000000     0.504880000000     0.598260000000     1.0401     
Co32     Co     0.672140000000     0.662010000000     0.510960000000     1.00872    
H1       H      0.641880000000     0.667760000000     0.867020000000     0.0372318  
H2       H      0.531930000000     0.458540000000     0.855470000000     0.0355708  
H3       H      0.531570000000     0.467990000000     0.754920000000     0.043665   
H4       H      0.633530000000     0.677230000000     0.764910000000     0.045589   
H5       H      0.621610000000     0.675080000000     0.261770000000     0.0440241  
H6       H      0.563220000000     0.471480000000     0.265700000000     0.0409896  
H7       H      0.577500000000     0.473630000000     0.366660000000     0.0375256  
H8       H      0.632200000000     0.676340000000     0.362130000000     0.0356327  
H9       H      0.643710000000     0.923770000000     0.451990000000     0.0326438  
H10      H      0.479420000000     0.834680000000     0.557690000000     0.0428467  
H11      H      0.507280000000     0.751360000000     0.586490000000     0.0444863  
H12      H      0.665460000000     0.834220000000     0.474480000000     0.0341088  
H13      H      0.437960000000     0.194270000000     0.642220000000     0.0352642  
H14      H      0.649740000000     0.308290000000     0.645180000000     0.0386454  
H15      H      0.645010000000     0.405040000000     0.663730000000     0.0452008  
H16      H      0.432820000000     0.294300000000     0.651560000000     0.0409899  
H17      H      0.620080000000     0.003840000000     0.871590000000     0.0475295  
H18      H      0.567670000000     0.153670000000     0.859270000000     0.0407814  
H19      H      0.580170000000     0.161820000000     0.760200000000     0.0403686  
H20      H      0.633670000000     0.012900000000     0.771800000000     0.04775    
H21      H      0.536360000000     0.125440000000     0.244920000000     0.0448785  
H22      H      0.611870000000     0.995100000000     0.278280000000     0.0350023  
H23      H      0.630750000000     0.024570000000     0.375910000000     0.0361159  
H24      H      0.549180000000     0.149880000000     0.343180000000     0.0365399  
H25      H      0.690340000000     0.910280000000     0.985220000000     0.0408674  
H26      H      0.479690000000     0.804530000000     0.998120000000     0.0445272  
H27      H      0.476490000000     0.702640000000     0.985410000000     0.0430345  
H28      H      0.686190000000     0.806180000000     0.969400000000     0.0370187  
H29      H      0.628570000000     0.279030000000     0.129320000000     0.0441847  
H30      H      0.418280000000     0.179870000000     0.145320000000     0.0467096  
H31      H      0.423610000000     0.286540000000     0.143230000000     0.0359646  
H32      H      0.633180000000     0.382720000000     0.126010000000     0.0369463  
H33      H      0.848150000000     0.452290000000     0.495470000000     0.0407474  
H34      H      0.944330000000     0.340190000000     0.485520000000     0.0358389  
H35      H      0.840490000000     0.240380000000     0.496740000000     0.0291128  
H36      H      0.741150000000     0.350040000000     0.501850000000     0.0330919  
H37      H      0.345170000000     0.705190000000     0.630320000000     0.0436028  
H38      H      0.258660000000     0.821850000000     0.661740000000     0.0372692  
H39      H      0.368130000000     0.914340000000     0.682140000000     0.0337144  
H40      H      0.454730000000     0.797100000000     0.654290000000     0.0424663  
H41      H      0.851940000000     0.666740000000     0.506800000000     0.0340962  
H42      H      0.719820000000     0.472520000000     0.567650000000     0.0229671  
H43      H      0.812370000000     0.464660000000     0.609110000000     0.0452046  
H44      H      0.944910000000     0.660210000000     0.549810000000     0.0408309  
H45      H      0.249190000000     0.482710000000     0.600880000000     0.0361597  
H46      H      0.344220000000     0.636290000000     0.478620000000     0.0371549  
H47      H      0.447480000000     0.640400000000     0.502260000000     0.0467356  
H48      H      0.352980000000     0.486240000000     0.624410000000     0.042809   
H49      H      0.047180000000     0.475600000000     0.863650000000     0.0408416  
H50      H      0.124770000000     0.682810000000     0.870370000000     0.044084   
H51      H      0.123640000000     0.689330000000     0.769000000000     0.0397838  
H52      H      0.043960000000     0.481750000000     0.763340000000     0.0455338  
H53      H      0.053340000000     0.446240000000     0.273290000000     0.0436176  
H54      H      0.064320000000     0.632960000000     0.262530000000     0.0409478  
H55      H      0.095920000000     0.648570000000     0.360240000000     0.043613   
H56      H      0.084110000000     0.461490000000     0.372060000000     0.0378962  
H57      H      0.938330000000     0.290380000000     0.971990000000     0.0349089  
H58      H      0.829580000000     0.385540000000     0.001510000000     0.0378115  
H59      H      0.729550000000     0.281970000000     0.007810000000     0.0368665  
H60      H      0.835120000000     0.183240000000     0.977540000000     0.0458129  
H61      H      0.292050000000     0.698630000000     0.158580000000     0.0432472  
H62      H      0.192920000000     0.807630000000     0.166390000000     0.0382326  
H63      H      0.299990000000     0.910870000000     0.157600000000     0.0406492  
H64      H      0.396240000000     0.798500000000     0.150710000000     0.0320836  
H65      H      0.865700000000     0.509170000000     0.989160000000     0.044647   
H66      H      0.824840000000     0.496230000000     0.161360000000     0.0355019  
H67      H      0.726340000000     0.503990000000     0.135310000000     0.0411959  
H68      H      0.761560000000     0.506270000000     0.963030000000     0.0348288  
H69      H      0.250180000000     0.514260000000     0.084290000000     0.0459354  
H70      H      0.351900000000     0.720820000000     0.047440000000     0.0428297  
H71      H      0.454180000000     0.729530000000     0.091510000000     0.0403245  
H72      H      0.347570000000     0.523650000000     0.129030000000     0.0337832  
H73      H      0.862200000000     0.913900000000     0.682070000000     0.0375332  
H74      H      0.960410000000     0.824190000000     0.613120000000     0.0390297  
H75      H      0.856470000000     0.721330000000     0.607170000000     0.0332897  
H76      H      0.758990000000     0.808210000000     0.680980000000     0.0409774  
H77      H      0.248960000000     0.324590000000     0.522800000000     0.0405037  
H78      H      0.331600000000     0.211570000000     0.471340000000     0.0397992  
H79      H      0.440950000000     0.311230000000     0.469650000000     0.0362344  
H80      H      0.355990000000     0.423190000000     0.518430000000     0.0423569  
H81      H      0.897150000000     0.118140000000     0.522900000000     0.0387738  
H82      H      0.793050000000     0.911230000000     0.557110000000     0.0382934  
H83      H      0.704330000000     0.920920000000     0.596630000000     0.0474829  
H84      H      0.813870000000     0.128570000000     0.565550000000     0.0315601  
H85      H      0.326900000000     0.170460000000     0.572620000000     0.037495   
H86      H      0.220060000000     0.960920000000     0.585860000000     0.0359467  
H87      H      0.316110000000     0.959260000000     0.553030000000     0.0363421  
H88      H      0.416360000000     0.168280000000     0.531490000000     0.0354098  
H89      H      0.017170000000     0.841790000000     0.477860000000     0.0340964  
H90      H      0.227340000000     0.950680000000     0.460850000000     0.0426048  
H91      H      0.230150000000     0.848400000000     0.474330000000     0.0396124  
H92      H      0.019720000000     0.742020000000     0.489360000000     0.0352814  
H93      H      0.137800000000     0.409960000000     0.669540000000     0.0420814  
H94      H      0.942420000000     0.310270000000     0.592710000000     0.0416998  
H95      H      0.955820000000     0.216850000000     0.576070000000     0.0300745  
H96      H      0.149790000000     0.315710000000     0.656200000000     0.0357721  
H97      H      0.110180000000     0.996850000000     0.851970000000     0.0375968  
H98      H      0.985990000000     0.080320000000     0.861370000000     0.0454848  
H99      H      0.991340000000     0.101620000000     0.761560000000     0.0392241  
H100     H      0.120410000000     0.023580000000     0.753020000000     0.0414191  
H101     H      0.146960000000     0.125160000000     0.253040000000     0.0469448  
H102     H      0.945960000000     0.965650000000     0.253680000000     0.0367071  
H103     H      0.944960000000     0.977030000000     0.352360000000     0.0398462  
H104     H      0.146430000000     0.135480000000     0.352630000000     0.0472031  
H105     H      0.894040000000     0.767820000000     0.024660000000     0.0316934  
H106     H      0.825810000000     0.905230000000     0.019260000000     0.04106    
H107     H      0.731220000000     0.830100000000     0.070880000000     0.0351122  
H108     H      0.797310000000     0.690830000000     0.076060000000     0.0342759  
H109     H      0.381730000000     0.299460000000     0.026460000000     0.0349789  
H110     H      0.312680000000     0.424180000000     0.078620000000     0.0294543  
H111     H      0.214600000000     0.328320000000     0.115380000000     0.0413466  
H112     H      0.286900000000     0.206170000000     0.063660000000     0.0485701  
H113     H      0.916910000000     0.165000000000     0.126190000000     0.0337246  
H114     H      0.825340000000     0.956370000000     0.121860000000     0.0172934  
H115     H      0.718360000000     0.944500000000     0.131720000000     0.0403228  
H116     H      0.806380000000     0.153540000000     0.130020000000     0.0411458  
H117     H      0.315040000000     0.170920000000     0.960690000000     0.0353472  
H118     H      0.210190000000     0.968570000000     0.010230000000     0.0168161  
H119     H      0.311210000000     0.965230000000     0.015490000000     0.0451107  
H120     H      0.419030000000     0.167770000000     0.965680000000     0.0382992  
H121     H      0.189400000000     0.841710000000     0.057570000000     0.0386707  
H122     H      0.983320000000     0.694710000000     0.056850000000     0.0317168  
H123     H      0.958810000000     0.770410000000     0.100010000000     0.0325102  
H124     H      0.164700000000     0.916090000000     0.101110000000     0.0406813  
H125     H      0.974850000000     0.194010000000     0.030430000000     0.0455882  
H126     H      0.178230000000     0.324800000000     0.995040000000     0.0421874  
H127     H      0.175320000000     0.411240000000     0.043810000000     0.0230562  
H128     H      0.972960000000     0.277740000000     0.081390000000     0.034334   
N1       N      0.587280000000     0.562530000000     0.868480000000    -0.18711    
N2       N      0.582450000000     0.573340000000     0.752750000000    -0.181319   
N3       N      0.589850000000     0.572820000000     0.256320000000    -0.189535   
N4       N      0.603620000000     0.574360000000     0.372100000000    -0.185506   
N5       N      0.563220000000     0.888610000000     0.506850000000    -0.185336   
N6       N      0.591360000000     0.789700000000     0.535330000000    -0.166758   
N7       N      0.544080000000     0.245990000000     0.636930000000    -0.192431   
N8       N      0.538500000000     0.357310000000     0.652730000000    -0.169005   
N9       N      0.590290000000     0.076230000000     0.872520000000    -0.189152   
N10      N      0.605800000000     0.086490000000     0.758510000000    -0.189001   
N11      N      0.573300000000     0.058390000000     0.254270000000    -0.18977    
N12      N      0.591190000000     0.089410000000     0.366770000000    -0.194271   
N13      N      0.586120000000     0.864940000000     0.997390000000    -0.178789   
N14      N      0.581970000000     0.746000000000     0.982190000000    -0.179077   
N15      N      0.522420000000     0.221190000000     0.133950000000    -0.167348   
N16      N      0.528150000000     0.342170000000     0.130900000000    -0.188999   
N17      N      0.905020000000     0.404260000000     0.493410000000    -0.182855   
N18      N      0.783330000000     0.287730000000     0.503010000000    -0.196373   
N19      N      0.295080000000     0.759350000000     0.639210000000    -0.188881   
N20      N      0.419180000000     0.863620000000     0.663790000000    -0.179841   
N21      N      0.779920000000     0.570980000000     0.535590000000    -0.192933   
N22      N      0.885250000000     0.562310000000     0.583920000000    -0.170583   
N23      N      0.290370000000     0.561280000000     0.539620000000    -0.198757   
N24      N      0.408010000000     0.565170000000     0.566760000000    -0.18802    
N25      N      0.086470000000     0.578910000000     0.875000000000    -0.187699   
N26      N      0.084110000000     0.586020000000     0.758270000000    -0.188779   
N27      N      0.056820000000     0.538670000000     0.260050000000    -0.182455   
N28      N      0.093340000000     0.556480000000     0.373770000000    -0.186592   
N29      N      0.892430000000     0.345330000000     0.991130000000    -0.190264   
N30      N      0.775680000000     0.224410000000     0.997520000000    -0.165847   
N31      N      0.233920000000     0.745490000000     0.157960000000    -0.183105   
N32      N      0.355520000000     0.862540000000     0.149140000000    -0.185111   
N33      N      0.852950000000     0.504520000000     0.077220000000    -0.187792   
N34      N      0.738250000000     0.506780000000     0.047360000000    -0.193404   
N35      N      0.293800000000     0.616450000000     0.059580000000    -0.190495   
N36      N      0.409370000000     0.626450000000     0.110630000000    -0.171418   
N37      N      0.917220000000     0.878030000000     0.642760000000    -0.182924   
N38      N      0.799920000000     0.758910000000     0.640400000000    -0.19386    
N39      N      0.282530000000     0.259480000000     0.500600000000    -0.179741   
N40      N      0.407660000000     0.374610000000     0.496500000000    -0.184639   
N41      N      0.852520000000     0.014150000000     0.537920000000    -0.191437   
N42      N      0.752240000000     0.025450000000     0.584330000000    -0.188477   
N43      N      0.265930000000     0.065730000000     0.581680000000    -0.186237   
N44      N      0.373710000000     0.063500000000     0.539270000000    -0.185231   
N45      N      0.123010000000     0.904760000000     0.472340000000    -0.175835   
N46      N      0.125540000000     0.787970000000     0.486390000000    -0.190216   
N47      N      0.040130000000     0.368110000000     0.629880000000    -0.184366   
N48      N      0.055080000000     0.260210000000     0.612850000000    -0.189802   
N49      N      0.048660000000     0.038110000000     0.864220000000    -0.182088   
N50      N      0.058090000000     0.066220000000     0.750280000000    -0.187617   
N51      N      0.047200000000     0.043430000000     0.245730000000    -0.181374   
N52      N      0.046030000000     0.056270000000     0.360470000000    -0.184556   
N53      N      0.869900000000     0.843770000000     0.021080000000    -0.189609   
N54      N      0.756550000000     0.754720000000     0.077580000000    -0.188278   
N55      N      0.354490000000     0.369300000000     0.048670000000    -0.190633   
N56      N      0.241590000000     0.259590000000     0.090570000000    -0.166253   
N57      N      0.878930000000     0.061790000000     0.121250000000    -0.186597   
N58      N      0.753410000000     0.048120000000     0.129530000000    -0.182938   
N59      N      0.255680000000     0.071200000000     0.988340000000    -0.186144   
N60      N      0.373560000000     0.067020000000     0.993770000000    -0.18045    
N61      N      0.088580000000     0.762940000000     0.052440000000    -0.174133   
N62      N      0.058550000000     0.850420000000     0.100070000000    -0.187408   
N63      N      0.078120000000     0.252070000000     0.011730000000    -0.167834   
N64      N      0.074560000000     0.350360000000     0.068480000000    -0.195411   
O1       O      0.042820000000     0.144970000000     0.026540000000    -0.452424   
O2       O      0.983260000000     0.890430000000     0.008780000000    -0.391516   
O3       O      0.049870000000     0.077630000000     0.948860000000    -0.385084   
O4       O      0.931960000000     0.023100000000     0.073890000000    -0.454019   
O5       O      0.072600000000     0.997700000000     0.946020000000    -0.433645   
O6       O      0.993990000000     0.106990000000     0.125330000000    -0.375401   
O7       O      0.941440000000     0.950020000000     0.012620000000    -0.440871   
O8       O      0.136140000000     0.201710000000     0.984850000000    -0.360299   
O9       O      0.093880000000     0.082670000000     0.161040000000    -0.384966   
O10      O      0.164310000000     0.035510000000     0.037250000000    -0.461252   
O11      O      0.171280000000     0.151370000000     0.075980000000    -0.447687   
O12      O      0.986810000000     0.891540000000     0.106700000000    -0.390718   
O13      O      0.088800000000     0.955740000000     0.098920000000    -0.43858    
O14      O      0.130100000000     0.203510000000     0.115530000000    -0.360325   
O15      O      0.993290000000     0.994470000000     0.163510000000    -0.443973   
O16      O      0.181620000000     0.111310000000     0.976970000000    -0.365609   
O17      O      0.049770000000     0.029470000000     0.055470000000    -0.594135   
O18      O      0.105480000000     0.084360000000     0.443730000000    -0.431902   
O19      O      0.024470000000     0.165430000000     0.568150000000    -0.453757   
O20      O      0.911860000000     0.962740000000     0.525510000000    -0.394611   
O21      O      0.187470000000     0.208120000000     0.548140000000    -0.441688   
O22      O      0.960250000000     0.063870000000     0.516900000000    -0.446445   
O23      O      0.213430000000     0.145290000000     0.505340000000    -0.374895   
O24      O      0.110180000000     0.201950000000     0.625040000000    -0.433447   
O25      O      0.001250000000     0.008690000000     0.443870000000    -0.430966   
O26      O      0.154580000000     0.024080000000     0.578430000000    -0.423596   
O27      O      0.954490000000     0.986430000000     0.619200000000    -0.425507   
O28      O      0.067840000000     0.955950000000     0.495710000000    -0.502133   
O29      O      0.118290000000     0.094060000000     0.672310000000    -0.451254   
O30      O      0.026090000000     0.096790000000     0.667400000000    -0.442316   
O31      O      0.169970000000     0.018990000000     0.471450000000    -0.385651   
O32      O      0.215650000000     0.121670000000     0.605760000000    -0.442986   
O33      O      0.003630000000     0.938410000000     0.587250000000    -0.43264    
O34      O      0.073760000000     0.077620000000     0.556460000000    -0.531844   
O35      O      0.007320000000     0.412610000000     0.003040000000    -0.428233   
O36      O      0.056560000000     0.658410000000     0.030180000000    -0.454288   
O37      O      0.929490000000     0.490330000000     0.131340000000    -0.424608   
O38      O      0.105790000000     0.622490000000     0.963030000000    -0.396163   
O39      O      0.962140000000     0.554230000000     0.061240000000    -0.43292    
O40      O      0.090930000000     0.524240000000     0.953940000000    -0.488946   
O41      O      0.162090000000     0.727960000000     0.032160000000    -0.362011   
O42      O      0.941080000000     0.433450000000     0.045270000000    -0.470961   
O43      O      0.185580000000     0.550660000000     0.033960000000    -0.509192   
O44      O      0.031400000000     0.573050000000     0.175170000000    -0.402635   
O45      O      0.016510000000     0.392310000000     0.105270000000    -0.433196   
O46      O      0.178240000000     0.647370000000     0.115330000000    -0.429088   
O47      O      0.121050000000     0.686820000000     0.136540000000    -0.419256   
O48      O      0.116100000000     0.456590000000     0.088500000000    -0.470109   
O49      O      0.223990000000     0.654240000000     0.025120000000    -0.403538   
O50      O      0.036180000000     0.482190000000     0.179850000000    -0.453596   
O51      O      0.071520000000     0.542990000000     0.069110000000    -0.516427   
O52      O      0.015650000000     0.450950000000     0.515530000000    -0.458303   
O53      O      0.077590000000     0.684740000000     0.525470000000    -0.445978   
O54      O      0.931250000000     0.502450000000     0.622560000000    -0.398933   
O55      O      0.131890000000     0.622770000000     0.448920000000    -0.472528   
O56      O      0.996460000000     0.606730000000     0.598150000000    -0.502088   
O57      O      0.116800000000     0.523520000000     0.460640000000    -0.427171   
O58      O      0.179490000000     0.730210000000     0.506530000000    -0.444892   
O59      O      0.971180000000     0.510420000000     0.522430000000    -0.41836    
O60      O      0.191550000000     0.539490000000     0.567120000000    -0.491523   
O61      O      0.101720000000     0.642270000000     0.675020000000    -0.460052   
O62      O      0.992260000000     0.433310000000     0.611090000000    -0.363515   
O63      O      0.242220000000     0.680460000000     0.575020000000    -0.469045   
O64      O      0.186760000000     0.721660000000     0.608520000000    -0.429493   
O65      O      0.096450000000     0.477460000000     0.617840000000    -0.436982   
O66      O      0.228950000000     0.602710000000     0.496680000000    -0.461632   
O67      O      0.046010000000     0.537260000000     0.673200000000    -0.427852   
O68      O      0.105350000000     0.583250000000     0.564110000000    -0.547639   
O69      O      0.430960000000     0.022430000000     0.039840000000    -0.425758   
O70      O      0.638100000000     0.976430000000     0.020550000000    -0.370586   
O71      O      0.578800000000     0.115600000000     0.952770000000    -0.443678   
O72      O      0.454380000000     0.906190000000     0.109090000000    -0.469205   
O73      O      0.591320000000     0.032100000000     0.958810000000    -0.444531   
O74      O      0.428730000000     0.975730000000     0.139170000000    -0.394193   
O75      O      0.537770000000     0.907580000000     0.046610000000    -0.444732   
O76      O      0.487420000000     0.118500000000     0.006060000000    -0.419377   
O77      O      0.556050000000     0.079750000000     0.163610000000    -0.441727   
O78      O      0.711950000000     0.110760000000     0.996910000000    -0.40711    
O79      O      0.570790000000     0.167050000000     0.098690000000    -0.411295   
O80      O      0.639860000000     0.982390000000     0.122550000000    -0.453414   
O81      O      0.681630000000     0.084540000000     0.101560000000    -0.422805   
O82      O      0.465900000000     0.107560000000     0.124130000000    -0.396995   
O83      O      0.551830000000     0.986740000000     0.184020000000    -0.46091    
O84      O      0.673340000000     0.168070000000     0.036300000000    -0.418991   
O85      O      0.548260000000     0.026090000000     0.063380000000    -0.600258   
O86      O      0.442850000000     0.022550000000     0.551200000000    -0.434079   
O87      O      0.623770000000     0.999420000000     0.507840000000    -0.454023   
O88      O      0.565860000000     0.123660000000     0.444300000000    -0.46222    
O89      O      0.530780000000     0.919540000000     0.646790000000    -0.393055   
O90      O      0.644560000000     0.099040000000     0.451170000000    -0.487415   
O91      O      0.475860000000     0.971280000000     0.637670000000    -0.517866   
O92      O      0.526490000000     0.952200000000     0.541290000000    -0.426625   
O93      O      0.482000000000     0.119220000000     0.515430000000    -0.437379   
O94      O      0.552490000000     0.092020000000     0.678840000000    -0.469035   
O95      O      0.728460000000     0.180920000000     0.532230000000    -0.484485   
O96      O      0.593670000000     0.209880000000     0.581270000000    -0.450669   
O97      O      0.643860000000     0.984250000000     0.605630000000    -0.374513   
O98      O      0.703900000000     0.086270000000     0.596050000000    -0.453669   
O99      O      0.499020000000     0.139080000000     0.613560000000    -0.440954   
O100     O      0.608750000000     0.042560000000     0.676740000000    -0.423349   
O101     O      0.669630000000     0.223990000000     0.502310000000    -0.468058   
O102     O      0.589700000000     0.087810000000     0.563120000000    -0.516701   
O103     O      0.460640000000     0.416290000000     0.019490000000    -0.435661   
O104     O      0.533100000000     0.642860000000     0.020760000000    -0.420744   
O105     O      0.464400000000     0.569250000000     0.117770000000    -0.497388   
O106     O      0.640980000000     0.594560000000     0.954630000000    -0.431542   
O107     O      0.523800000000     0.677020000000     0.120160000000    -0.389308   
O108     O      0.541800000000     0.506490000000     0.948230000000    -0.463359   
O109     O      0.635770000000     0.687280000000     0.000750000000    -0.415292   
O110     O      0.428660000000     0.478250000000     0.049200000000    -0.448456   
O111     O      0.648900000000     0.500240000000     0.995850000000    -0.439588   
O112     O      0.585930000000     0.619630000000     0.171130000000    -0.420775   
O113     O      0.485400000000     0.412420000000     0.119970000000    -0.404973   
O114     O      0.685230000000     0.651310000000     0.104880000000    -0.439985   
O115     O      0.647100000000     0.713930000000     0.095830000000    -0.367913   
O116     O      0.574170000000     0.434740000000     0.078220000000    -0.466268   
O117     O      0.693350000000     0.568920000000     0.061530000000    -0.46163    
O118     O      0.532230000000     0.514190000000     0.180140000000    -0.468678   
O119     O      0.571480000000     0.554180000000     0.062920000000    -0.527096   
O120     O      0.521390000000     0.423880000000     0.508830000000    -0.438143   
O121     O      0.599150000000     0.725380000000     0.606310000000    -0.429207   
O122     O      0.473290000000     0.530930000000     0.615750000000    -0.405871   
O123     O      0.611030000000     0.623500000000     0.453050000000    -0.448827   
O124     O      0.518830000000     0.617800000000     0.561040000000    -0.471834   
O125     O      0.613740000000     0.531450000000     0.458070000000    -0.407681   
O126     O      0.633540000000     0.721590000000     0.522720000000    -0.448467   
O127     O      0.477790000000     0.477270000000     0.531690000000    -0.432607   
O128     O      0.684700000000     0.555940000000     0.563140000000    -0.458898   
O129     O      0.572670000000     0.620630000000     0.669280000000    -0.401995   
O130     O      0.487880000000     0.419780000000     0.629390000000    -0.390395   
O131     O      0.741230000000     0.705520000000     0.563330000000    -0.47568    
O132     O      0.686590000000     0.693000000000     0.635050000000    -0.4515     
O133     O      0.592640000000     0.455920000000     0.608590000000    -0.45538    
O134     O      0.725090000000     0.621530000000     0.493590000000    -0.403719   
O135     O      0.583490000000     0.533870000000     0.668750000000    -0.407959   
O136     O      0.603440000000     0.581740000000     0.564040000000    -0.601828   


