data_structure

_audit_creation_method RASPA-1.0
_audit_creation_date 2023-5-22
_audit_author_name 'Poobodin Mano'

_cell_length_a    35.0694
_cell_length_b    36.7095
_cell_length_c    34.6843
_cell_angle_alpha 87.106
_cell_angle_beta  87.057
_cell_angle_gamma 87.057
_cell_volume      44482.9

_symmetry_cell_setting          triclinic
_symmetry_space_group_name_Hall 'P 1'
_symmetry_space_group_name_H-M  'P 1'
_symmetry_Int_Tables_number     1

_symmetry_equiv_pos_as_xyz 'x,y,z'

loop_
_atom_site_label
_atom_site_type_symbol
_atom_site_fract_x
_atom_site_fract_y
_atom_site_fract_z
_atom_site_charge
C1       C      0.070920000000     0.011290000000     0.208410000000     0.391655   
C2       C      0.486960000000     0.428020000000     0.349270000000     0.391094   
C3       C      0.064400000000     0.003790000000     0.351020000000     0.380545   
C4       C      0.491400000000     0.433120000000     0.206360000000     0.383998   
C5       C      0.406890000000     0.484530000000     0.211820000000     0.306506   
C6       C      0.013110000000     0.076280000000     0.354240000000     0.393772   
C7       C      0.003030000000     0.089450000000     0.214710000000     0.394657   
C8       C      0.394900000000     0.495500000000     0.331600000000     0.396295   
C9       C      0.005740000000     0.206740000000     0.123050000000     0.391736   
C10      C      0.448860000000     0.334230000000     0.485110000000     0.386798   
C11      C      0.037670000000     0.326320000000     0.105670000000     0.383865   
C12      C      0.417730000000     0.226820000000     0.512040000000     0.296669   
C13      C      0.495740000000     0.184190000000     0.455670000000     0.397157   
C14      C      0.117090000000     0.306660000000     0.054680000000     0.393309   
C15      C      0.081350000000     0.174760000000     0.059270000000     0.3932     
C16      C      0.531110000000     0.319700000000     0.437270000000     0.399781   
C17      C      0.339520000000     0.005240000000     0.087420000000     0.30655    
C18      C      0.207100000000     0.395790000000     0.530850000000     0.39723    
C19      C      0.191450000000     0.978260000000     0.122310000000     0.395473   
C20      C      0.335240000000     0.435530000000     0.464700000000     0.393237   
C21      C      0.278320000000     0.498220000000     0.414980000000     0.39228    
C22      C      0.179110000000     0.052860000000     0.065820000000     0.387075   
C23      C      0.290700000000     0.080850000000     0.041600000000     0.297036   
C24      C      0.172170000000     0.464680000000     0.449230000000     0.391405   
C25      C      0.367340000000     0.381050000000     0.434720000000    -0.0116846  
C26      C      0.405890000000     0.426530000000     0.463320000000    -0.0162689  
C27      C      0.400240000000     0.356480000000     0.973430000000    -0.0139004  
C28      C      0.422630000000     0.397390000000     0.491460000000    -0.0110212  
C29      C      0.412830000000     0.099040000000     0.039270000000    -0.0221853  
C30      C      0.414760000000     0.043700000000     0.464440000000    -0.0206661  
C31      C      0.389910000000     0.128970000000     0.016910000000    -0.0237752  
C32      C      0.388020000000     0.075910000000     0.451780000000    -0.0266937  
C33      C      0.202360000000     0.328890000000     0.526330000000    -0.0124283  
C34      C      0.185760000000     0.364000000000     0.098320000000    -0.0107921  
C35      C      0.171900000000     0.301250000000     0.540430000000    -0.0118944  
C36      C      0.146620000000     0.354130000000     0.086650000000    -0.00940025 
C37      C      0.103040000000     0.074930000000     0.556060000000    -0.0125801  
C38      C      0.158020000000     0.111130000000     0.095670000000    -0.013467   
C39      C      0.088980000000     0.109950000000     0.534440000000    -0.0129296  
C40      C      0.144990000000     0.147260000000     0.075120000000    -0.0126342  
C41      C      0.330400000000     0.471930000000     0.339930000000    -0.0133806  
C42      C      0.347190000000     0.533900000000     0.366440000000    -0.0105892  
C43      C      0.291910000000     0.983310000000     0.349830000000    -0.0103081  
C44      C      0.304440000000     0.543740000000     0.368030000000    -0.0102562  
C45      C      0.130540000000     0.495820000000     0.358920000000    -0.0137365  
C46      C      0.086410000000     0.998160000000     0.417310000000    -0.0123039  
C47      C      0.153180000000     0.464690000000     0.380840000000    -0.013154   
C48      C      0.107490000000     0.966110000000     0.437300000000    -0.0102049  
C49      C      0.101680000000     0.981250000000     0.152150000000    -0.0135241  
C50      C      0.140810000000     0.017100000000     0.195580000000    -0.0147281  
C51      C      0.134530000000     0.453760000000     0.157350000000    -0.0090415  
C52      C      0.173550000000     0.987820000000     0.191200000000    -0.0102845  
C53      C      0.461310000000     0.483530000000     0.066740000000    -0.0292432  
C54      C      0.481520000000     0.034320000000     0.102210000000    -0.0231913  
C55      C      0.492300000000     0.492150000000     0.035320000000    -0.0219608  
C56      C      0.511240000000     0.044170000000     0.069990000000    -0.0243083  
C57      C      0.018140000000     0.093600000000     0.421510000000    -0.0095822  
C58      C      0.030730000000     0.139110000000     0.366940000000    -0.0118054  
C59      C      0.488590000000     0.119740000000     0.441380000000    -0.0135303  
C60      C      0.502670000000     0.166640000000     0.387310000000    -0.0136236  
C61      C      0.017900000000     0.403560000000     0.407590000000    -0.015022   
C62      C      0.493260000000     0.360660000000     0.360050000000    -0.0149056  
C63      C      0.053300000000     0.377820000000     0.410230000000    -0.00924923 
C64      C      0.528160000000     0.334530000000     0.367130000000    -0.00964266 
C65      C      0.028810000000     0.340610000000     0.175510000000    -0.0133784  
C66      C      0.542620000000     0.389250000000     0.125720000000    -0.0105356  
C67      C      0.998040000000     0.366540000000     0.194930000000    -0.0146209  
C68      C      0.509280000000     0.413150000000     0.140910000000    -0.0145467  
C69      C      0.029360000000     0.150340000000     0.200980000000    -0.0136281  
C70      C      0.474790000000     0.128010000000     0.163610000000    -0.0119001  
C71      C      0.014010000000     0.189880000000     0.192600000000    -0.0122346  
C72      C      0.459690000000     0.167550000000     0.159940000000    -0.0109375  
C73      C      0.072590000000     0.008830000000     0.711050000000     0.391817   
C74      C      0.520320000000     0.417890000000     0.849630000000     0.387693   
C75      C      0.072880000000     0.006870000000     0.854380000000     0.382562   
C76      C      0.494670000000     0.425180000000     0.716100000000     0.384705   
C77      C      0.410440000000     0.484960000000     0.740710000000     0.294803   
C78      C      0.014600000000     0.075160000000     0.857550000000     0.390205   
C79      C      0.003000000000     0.085510000000     0.718010000000     0.394441   
C80      C      0.415650000000     0.485720000000     0.851330000000     0.393636   
C81      C      0.997840000000     0.201760000000     0.623290000000     0.392403   
C82      C      0.466350000000     0.339600000000     0.991070000000     0.386674   
C83      C      0.026330000000     0.321130000000     0.608060000000     0.386026   
C84      C      0.429680000000     0.235320000000     0.012790000000     0.292072   
C85      C      0.502780000000     0.187920000000     0.956300000000     0.39397    
C86      C      0.101390000000     0.305010000000     0.547420000000     0.392729   
C87      C      0.070250000000     0.171630000000     0.556660000000     0.393122   
C88      C      0.556390000000     0.313370000000     0.936620000000     0.40101    
C89      C      0.333570000000     0.013720000000     0.575920000000     0.301626   
C90      C      0.219480000000     0.399130000000     0.046380000000     0.397184   
C91      C      0.189090000000     0.978960000000     0.617630000000     0.395358   
C92      C      0.348600000000     0.440540000000     0.984370000000     0.393222   
C93      C      0.296020000000     0.500460000000     0.932940000000     0.392541   
C94      C      0.170520000000     0.051990000000     0.560790000000     0.388104   
C95      C      0.278210000000     0.083630000000     0.526910000000     0.295851   
C96      C      0.186570000000     0.468870000000     0.962130000000     0.390255   
C97      C      0.381260000000     0.388590000000     0.950750000000    -0.0113336  
C98      C      0.419540000000     0.432600000000     0.982340000000    -0.0122686  
C99      C      0.384840000000     0.350250000000     0.460740000000    -0.014135   
C100     C      0.439720000000     0.401400000000     0.005710000000    -0.0137677  
C101     C      0.419080000000     0.070640000000     0.529060000000    -0.0194409  
C102     C      0.411310000000     0.058300000000     0.983520000000    -0.0193425  
C103     C      0.392260000000     0.102760000000     0.516480000000    -0.0256007  
C104     C      0.388820000000     0.088380000000     0.960800000000    -0.0283054  
C105     C      0.217740000000     0.331830000000     0.042140000000    -0.0124107  
C106     C      0.174630000000     0.361410000000     0.584080000000    -0.0104386  
C107     C      0.187590000000     0.303340000000     0.054390000000    -0.0113384  
C108     C      0.134370000000     0.353500000000     0.574040000000    -0.00932135 
C109     C      0.112690000000     0.077770000000     0.058750000000    -0.0124332  
C110     C      0.148580000000     0.109740000000     0.591180000000    -0.0133784  
C111     C      0.099990000000     0.113170000000     0.037130000000    -0.0127986  
C112     C      0.134960000000     0.145290000000     0.570020000000    -0.0125473  
C113     C      0.349250000000     0.466690000000     0.862580000000    -0.0141895  
C114     C      0.372140000000     0.526090000000     0.889040000000    -0.0121044  
C115     C      0.300400000000     0.989550000000     0.857750000000    -0.00933106 
C116     C      0.330950000000     0.541290000000     0.887400000000    -0.0100294  
C117     C      0.150790000000     0.497740000000     0.867520000000    -0.0133704  
C118     C      0.096530000000     0.008880000000     0.919560000000    -0.0111528  
C119     C      0.170160000000     0.466610000000     0.892850000000    -0.0138564  
C120     C      0.114950000000     0.976690000000     0.941760000000    -0.0107267  
C121     C      0.101130000000     0.979360000000     0.653510000000    -0.0132769  
C122     C      0.141790000000     0.016000000000     0.694740000000    -0.0147455  
C123     C      0.132320000000     0.446990000000     0.647940000000    -0.00978351 
C124     C      0.175260000000     0.987960000000     0.687450000000    -0.0104023  
C125     C      0.403170000000     0.419250000000     0.592600000000    -0.0265946  
C126     C      0.481220000000     0.022810000000     0.612720000000    -0.0219623  
C127     C      0.428480000000     0.450820000000     0.579120000000    -0.024184   
C128     C      0.512740000000     0.027410000000     0.580860000000    -0.0248693  
C129     C      0.016020000000     0.095630000000     0.924190000000    -0.0108576  
C130     C      0.031240000000     0.138950000000     0.868030000000    -0.0125809  
C131     C      0.489660000000     0.124400000000     0.942820000000    -0.013297   
C132     C      0.506750000000     0.169210000000     0.888130000000    -0.0135528  
C133     C      0.067100000000     0.393630000000     0.895890000000    -0.0126627  
C134     C      0.531270000000     0.351250000000     0.853920000000    -0.0143108  
C135     C      0.095040000000     0.361380000000     0.904250000000    -0.010085   
C136     C      0.561250000000     0.321390000000     0.865520000000    -0.00950667 
C137     C      0.026820000000     0.333630000000     0.678410000000    -0.0133859  
C138     C      0.531900000000     0.384780000000     0.627460000000    -0.0104162  
C139     C      0.998960000000     0.358040000000     0.703470000000    -0.0143977  
C140     C      0.500600000000     0.406850000000     0.648710000000    -0.0154607  
C141     C      0.026660000000     0.147100000000     0.701400000000    -0.0135448  
C142     C      0.473750000000     0.122870000000     0.666360000000    -0.0119102  
C143     C      0.009380000000     0.185880000000     0.692520000000    -0.0122509  
C144     C      0.456790000000     0.161760000000     0.662270000000    -0.011196   
C145     C      0.069360000000     0.514170000000     0.210020000000     0.391282   
C146     C      0.492290000000     0.924830000000     0.349520000000     0.391321   
C147     C      0.060610000000     0.506190000000     0.350250000000     0.382088   
C148     C      0.492280000000     0.930840000000     0.206160000000     0.386149   
C149     C      0.408340000000     0.982360000000     0.214860000000     0.30689    
C150     C      0.008910000000     0.579350000000     0.354070000000     0.392356   
C151     C      0.999910000000     0.592310000000     0.214550000000     0.395211   
C152     C      0.398790000000     0.993260000000     0.332760000000     0.396509   
C153     C      0.003540000000     0.708110000000     0.122080000000     0.391208   
C154     C      0.452830000000     0.837020000000     0.494740000000     0.387589   
C155     C      0.036580000000     0.825480000000     0.104290000000     0.385079   
C156     C      0.420410000000     0.730030000000     0.520560000000     0.297544   
C157     C      0.493610000000     0.686550000000     0.457780000000     0.394027   
C158     C      0.114760000000     0.806510000000     0.050420000000     0.393029   
C159     C      0.080640000000     0.674580000000     0.058250000000     0.392338   
C160     C      0.535010000000     0.818130000000     0.439280000000     0.401028   
C161     C      0.340200000000     0.507130000000     0.094780000000     0.307654   
C162     C      0.210500000000     0.898710000000     0.534800000000     0.396616   
C163     C      0.192300000000     0.480530000000     0.127450000000     0.39577    
C164     C      0.338770000000     0.940230000000     0.475630000000     0.392866   
C165     C      0.282410000000     0.999490000000     0.418100000000     0.39339    
C166     C      0.180240000000     0.553540000000     0.067660000000     0.385844   
C167     C      0.292720000000     0.581470000000     0.045520000000     0.297228   
C168     C      0.175320000000     0.966100000000     0.452190000000     0.390267   
C169     C      0.372580000000     0.885960000000     0.447580000000    -0.0110129  
C170     C      0.409140000000     0.930440000000     0.480770000000    -0.015407   
C171     C      0.396400000000     0.855930000000     0.969760000000    -0.0140292  
C172     C      0.426150000000     0.899490000000     0.507100000000    -0.0124479  
C173     C      0.415280000000     0.601050000000     0.044060000000    -0.0219057  
C174     C      0.427040000000     0.529330000000     0.449140000000    -0.0247274  
C175     C      0.391900000000     0.629700000000     0.020490000000    -0.0239002  
C176     C      0.395020000000     0.555370000000     0.464590000000    -0.0245524  
C177     C      0.207920000000     0.831510000000     0.530510000000    -0.0122806  
C178     C      0.184780000000     0.863790000000     0.091950000000    -0.0108165  
C179     C      0.178470000000     0.802900000000     0.544670000000    -0.0118202  
C180     C      0.145260000000     0.854030000000     0.081310000000    -0.00930338 
C181     C      0.107370000000     0.576430000000     0.549960000000    -0.0127999  
C182     C      0.158240000000     0.612590000000     0.095190000000    -0.0135835  
C183     C      0.096230000000     0.612150000000     0.528130000000    -0.0123835  
C184     C      0.144720000000     0.648170000000     0.073950000000    -0.0126336  
C185     C      0.334000000000     0.970540000000     0.342280000000    -0.0134034  
C186     C      0.352050000000     0.032680000000     0.367330000000    -0.0107357  
C187     C      0.288160000000     0.484520000000     0.346210000000    -0.0103479  
C188     C      0.309500000000     0.043040000000     0.369420000000    -0.0107913  
C189     C      0.134390000000     0.995260000000     0.360750000000    -0.0134518  
C190     C      0.083520000000     0.499840000000     0.416140000000    -0.0126256  
C191     C      0.157760000000     0.965060000000     0.383360000000    -0.0134816  
C192     C      0.103920000000     0.467140000000     0.435670000000    -0.00969354 
C193     C      0.101940000000     0.482680000000     0.155670000000    -0.013811   
C194     C      0.139230000000     0.520970000000     0.198480000000    -0.0141001  
C195     C      0.133630000000     0.951640000000     0.152320000000    -0.0087646  
C196     C      0.172710000000     0.492320000000     0.195550000000    -0.0110122  
C197     C      0.460250000000     0.983950000000     0.063100000000    -0.0290323  
C198     C      0.482540000000     0.534300000000     0.105320000000    -0.0220237  
C199     C      0.489920000000     0.994030000000     0.030860000000    -0.0214211  
C200     C      0.513480000000     0.542750000000     0.073860000000    -0.024296   
C201     C      0.016210000000     0.596050000000     0.421260000000    -0.0105714  
C202     C      0.024240000000     0.642840000000     0.367010000000    -0.0122741  
C203     C      0.485970000000     0.622240000000     0.442650000000    -0.0135216  
C204     C      0.495430000000     0.670330000000     0.388850000000    -0.0140324  
C205     C      0.022440000000     0.901480000000     0.407920000000    -0.0139861  
C206     C      0.498740000000     0.857610000000     0.360590000000    -0.0147392  
C207     C      0.057180000000     0.875000000000     0.410670000000    -0.0098512  
C208     C      0.532710000000     0.830660000000     0.368700000000    -0.00963116 
C209     C      0.029540000000     0.839360000000     0.174280000000    -0.0134141  
C210     C      0.540830000000     0.888620000000     0.123410000000    -0.0102595  
C211     C      0.998610000000     0.864540000000     0.194460000000    -0.0141696  
C212     C      0.507530000000     0.911740000000     0.139910000000    -0.014545   
C213     C      0.026170000000     0.653140000000     0.200810000000    -0.0138641  
C214     C      0.470830000000     0.630810000000     0.162540000000    -0.0118353  
C215     C      0.011180000000     0.692700000000     0.191950000000    -0.0121504  
C216     C      0.455990000000     0.670410000000     0.158250000000    -0.0110254  
C217     C      0.074790000000     0.503390000000     0.714240000000     0.392217   
C218     C      0.509490000000     0.921290000000     0.846800000000     0.387347   
C219     C      0.080530000000     0.505970000000     0.858610000000     0.386805   
C220     C      0.495970000000     0.927100000000     0.712590000000     0.38365    
C221     C      0.412030000000     0.980180000000     0.722720000000     0.305612   
C222     C      0.019740000000     0.572360000000     0.860960000000     0.391868   
C223     C      0.010350000000     0.581830000000     0.721390000000     0.393739   
C224     C      0.407840000000     0.992070000000     0.841940000000     0.396225   
C225     C      0.006740000000     0.699100000000     0.626010000000     0.391007   
C226     C      0.462270000000     0.838930000000     0.988340000000     0.386512   
C227     C      0.033810000000     0.820640000000     0.610410000000     0.385349   
C228     C      0.427050000000     0.733730000000     0.012600000000     0.29163    
C229     C      0.500420000000     0.686970000000     0.954770000000     0.395983   
C230     C      0.107870000000     0.805090000000     0.550660000000     0.392185   
C231     C      0.077220000000     0.672190000000     0.554460000000     0.39445    
C232     C      0.549000000000     0.815200000000     0.933530000000     0.400775   
C233     C      0.333760000000     0.501750000000     0.572700000000     0.307587   
C234     C      0.217180000000     0.899340000000     0.039470000000     0.397242   
C235     C      0.187860000000     0.474890000000     0.614080000000     0.395586   
C236     C      0.345480000000     0.940710000000     0.978030000000     0.393331   
C237     C      0.290960000000     0.002940000000     0.926700000000     0.392561   
C238     C      0.173230000000     0.549990000000     0.556910000000     0.389203   
C239     C      0.283760000000     0.576990000000     0.527300000000     0.300635   
C240     C      0.182800000000     0.970650000000     0.956760000000     0.389336   
C241     C      0.378150000000     0.887790000000     0.946030000000    -0.0112758  
C242     C      0.416360000000     0.932060000000     0.977370000000    -0.0125515  
C243     C      0.387820000000     0.854590000000     0.473920000000    -0.0136272  
C244     C      0.435740000000     0.901090000000     0.001780000000    -0.0137715  
C245     C      0.461540000000     0.533730000000     0.510330000000    -0.020794   
C246     C      0.414670000000     0.558010000000     0.990220000000    -0.0193534  
C247     C      0.429330000000     0.559600000000     0.525810000000    -0.0268431  
C248     C      0.391820000000     0.586900000000     0.966270000000    -0.0284126  
C249     C      0.215130000000     0.832120000000     0.034660000000    -0.0123177  
C250     C      0.179060000000     0.863510000000     0.588130000000    -0.0106169  
C251     C      0.185330000000     0.803490000000     0.047610000000    -0.0114923  
C252     C      0.139190000000     0.854010000000     0.578380000000    -0.00944569 
C253     C      0.113870000000     0.577780000000     0.058490000000    -0.012612   
C254     C      0.153930000000     0.608580000000     0.587000000000    -0.0135623  
C255     C      0.100240000000     0.612890000000     0.036730000000    -0.0129979  
C256     C      0.142130000000     0.644890000000     0.566050000000    -0.0123664  
C257     C      0.341420000000     0.973330000000     0.851550000000    -0.0135789  
C258     C      0.364350000000     0.032280000000     0.879610000000    -0.0113119  
C259     C      0.308550000000     0.484320000000     0.865160000000    -0.00949488 
C260     C      0.322690000000     0.046180000000     0.881010000000    -0.0103031  
C261     C      0.143250000000     0.999350000000     0.863240000000    -0.0128533  
C262     C      0.104490000000     0.511020000000     0.923150000000    -0.00872078 
C263     C      0.165090000000     0.969320000000     0.887820000000    -0.0138315  
C264     C      0.119290000000     0.477300000000     0.945450000000    -0.010901   
C265     C      0.099850000000     0.475340000000     0.654530000000    -0.0133003  
C266     C      0.143650000000     0.508850000000     0.695680000000    -0.0142647  
C267     C      0.133890000000     0.950750000000     0.651290000000    -0.00890059 
C268     C      0.176220000000     0.481050000000     0.684750000000    -0.0110223  
C269     C      0.453940000000     0.973720000000     0.575980000000    -0.0279665  
C270     C      0.383520000000     0.451240000000     0.653030000000    -0.0232695  
C271     C      0.485850000000     0.978060000000     0.544490000000    -0.0215372  
C272     C      0.410070000000     0.481970000000     0.640580000000    -0.0276049  
C273     C      0.019520000000     0.594840000000     0.926840000000    -0.01092    
C274     C      0.032840000000     0.637460000000     0.869510000000    -0.0126688  
C275     C      0.489820000000     0.622750000000     0.942210000000    -0.0120689  
C276     C      0.505300000000     0.667300000000     0.886860000000    -0.0134077  
C277     C      0.052670000000     0.896870000000     0.896040000000    -0.0137244  
C278     C      0.518660000000     0.854330000000     0.853160000000    -0.0145283  
C279     C      0.082880000000     0.866040000000     0.901850000000    -0.0097351  
C280     C      0.550120000000     0.825140000000     0.862600000000    -0.00958712 
C281     C      0.029920000000     0.833730000000     0.680770000000    -0.0128568  
C282     C      0.543180000000     0.883450000000     0.629950000000    -0.0102432  
C283     C      0.000050000000     0.859560000000     0.701780000000    -0.0154707  
C284     C      0.510730000000     0.907500000000     0.646510000000    -0.0140654  
C285     C      0.036720000000     0.642140000000     0.703280000000    -0.0135942  
C286     C      0.481510000000     0.619550000000     0.668160000000    -0.011999   
C287     C      0.020860000000     0.681490000000     0.694410000000    -0.0121943  
C288     C      0.465470000000     0.658770000000     0.664440000000    -0.0113777  
C289     C      0.570420000000     0.011020000000     0.209120000000     0.39186    
C290     C      0.986630000000     0.428290000000     0.349250000000     0.391316   
C291     C      0.563910000000     0.003580000000     0.352100000000     0.380039   
C292     C      0.991730000000     0.433400000000     0.205720000000     0.384518   
C293     C      0.907670000000     0.485050000000     0.211230000000     0.306533   
C294     C      0.512210000000     0.075660000000     0.355000000000     0.393712   
C295     C      0.502820000000     0.088800000000     0.215390000000     0.394903   
C296     C      0.895510000000     0.496130000000     0.330900000000     0.396223   
C297     C      0.505910000000     0.206320000000     0.123570000000     0.392601   
C298     C      0.948310000000     0.334270000000     0.485240000000     0.386818   
C299     C      0.537570000000     0.326090000000     0.106410000000     0.384133   
C300     C      0.916620000000     0.227120000000     0.511820000000     0.294248   
C301     C      0.995320000000     0.184300000000     0.455180000000     0.396873   
C302     C      0.617020000000     0.306610000000     0.055480000000     0.393391   
C303     C      0.581440000000     0.174650000000     0.059770000000     0.393373   
C304     C      0.030340000000     0.319610000000     0.437400000000     0.399801   
C305     C      0.839420000000     0.004690000000     0.088570000000     0.306661   
C306     C      0.707710000000     0.396820000000     0.530150000000     0.397346   
C307     C      0.691150000000     0.978130000000     0.123110000000     0.395495   
C308     C      0.835470000000     0.436310000000     0.464310000000     0.393374   
C309     C      0.778890000000     0.499290000000     0.414220000000     0.392085   
C310     C      0.679170000000     0.052680000000     0.066450000000     0.387046   
C311     C      0.791040000000     0.080410000000     0.042700000000     0.29712    
C312     C      0.672280000000     0.465710000000     0.448800000000     0.391652   
C313     C      0.867380000000     0.381670000000     0.434510000000    -0.0115853  
C314     C      0.906050000000     0.426820000000     0.463500000000    -0.0163137  
C315     C      0.899870000000     0.356340000000     0.973770000000    -0.013881   
C316     C      0.922390000000     0.397520000000     0.491730000000    -0.0111237  
C317     C      0.912630000000     0.099340000000     0.039590000000    -0.0221145  
C318     C      0.926200000000     0.047050000000     0.490780000000    -0.0169275  
C319     C      0.889720000000     0.129270000000     0.017220000000    -0.023853   
C320     C      0.897030000000     0.068270000000     0.465790000000    -0.0272385  
C321     C      0.703130000000     0.329930000000     0.525460000000    -0.0124217  
C322     C      0.685580000000     0.364080000000     0.099120000000    -0.0108022  
C323     C      0.672740000000     0.302210000000     0.539510000000    -0.0118796  
C324     C      0.646450000000     0.354100000000     0.087500000000    -0.00938996 
C325     C      0.604830000000     0.075820000000     0.557030000000    -0.0125495  
C326     C      0.658090000000     0.111010000000     0.096170000000    -0.0134289  
C327     C      0.590630000000     0.110500000000     0.534930000000    -0.0130523  
C328     C      0.645080000000     0.147150000000     0.075620000000    -0.0126866  
C329     C      0.830910000000     0.472800000000     0.339170000000    -0.0134561  
C330     C      0.847920000000     0.534720000000     0.365650000000    -0.0104445  
C331     C      0.792250000000     0.985620000000     0.350120000000    -0.0104128  
C332     C      0.805200000000     0.544700000000     0.367260000000    -0.0103532  
C333     C      0.630020000000     0.496820000000     0.358810000000    -0.0137298  
C334     C      0.586030000000     0.998910000000     0.418380000000    -0.0125864  
C335     C      0.653000000000     0.465780000000     0.380520000000    -0.013121   
C336     C      0.607820000000     0.967680000000     0.439080000000    -0.0104811  
C337     C      0.601270000000     0.981240000000     0.152730000000    -0.0135114  
C338     C      0.640280000000     0.017040000000     0.196280000000    -0.0146005  
C339     C      0.633920000000     0.453960000000     0.157930000000    -0.00902485 
C340     C      0.673050000000     0.987780000000     0.191950000000    -0.010356   
C341     C      0.961180000000     0.484140000000     0.066530000000    -0.0293447  
C342     C      0.981630000000     0.034550000000     0.101990000000    -0.0227215  
C343     C      0.991900000000     0.492830000000     0.034860000000    -0.0215127  
C344     C      0.011230000000     0.044340000000     0.069630000000    -0.024806   
C345     C      0.517360000000     0.093190000000     0.422220000000    -0.00974273 
C346     C      0.530030000000     0.138470000000     0.367450000000    -0.0119381  
C347     C      0.988970000000     0.119840000000     0.440560000000    -0.0136137  
C348     C      0.002990000000     0.167030000000     0.386740000000    -0.0141244  
C349     C      0.518870000000     0.403380000000     0.407290000000    -0.0142528  
C350     C      0.992260000000     0.360910000000     0.360260000000    -0.0146627  
C351     C      0.554290000000     0.377700000000     0.409810000000    -0.00896938 
C352     C      0.027160000000     0.334810000000     0.367290000000    -0.0097767  
C353     C      0.528730000000     0.340330000000     0.176260000000    -0.013182   
C354     C      0.042640000000     0.389510000000     0.125010000000    -0.0104044  
C355     C      0.497950000000     0.366290000000     0.195640000000    -0.0148169  
C356     C      0.009300000000     0.413450000000     0.140150000000    -0.0147205  
C357     C      0.529500000000     0.149550000000     0.201590000000    -0.0136734  
C358     C      0.974820000000     0.128620000000     0.163020000000    -0.0114119  
C359     C      0.514320000000     0.189110000000     0.193060000000    -0.0116447  
C360     C      0.959490000000     0.168100000000     0.159550000000    -0.0108409  
C361     C      0.574480000000     0.009210000000     0.711910000000     0.391505   
C362     C      0.021060000000     0.417240000000     0.849210000000     0.387252   
C363     C      0.573360000000     0.006840000000     0.854920000000     0.382482   
C364     C      0.993630000000     0.424550000000     0.716610000000     0.384762   
C365     C      0.909880000000     0.484260000000     0.741530000000     0.294829   
C366     C      0.515430000000     0.075420000000     0.857920000000     0.390593   
C367     C      0.504670000000     0.086010000000     0.718180000000     0.394778   
C368     C      0.915540000000     0.485110000000     0.852190000000     0.393734   
C369     C      0.499530000000     0.202390000000     0.623500000000     0.392221   
C370     C      0.966160000000     0.339600000000     0.990880000000     0.386694   
C371     C      0.527530000000     0.321630000000     0.607890000000     0.386279   
C372     C      0.929600000000     0.235420000000     0.012220000000     0.291931   
C373     C      0.002530000000     0.187960000000     0.955780000000     0.393519   
C374     C      0.602260000000     0.305770000000     0.546800000000     0.392773   
C375     C      0.571860000000     0.172370000000     0.556610000000     0.393487   
C376     C      0.056570000000     0.313180000000     0.935980000000     0.401602   
C377     C      0.835540000000     0.014530000000     0.576110000000     0.305857   
C378     C      0.719160000000     0.399220000000     0.047100000000     0.397223   
C379     C      0.691310000000     0.980060000000     0.618540000000     0.39546    
C380     C      0.848090000000     0.440420000000     0.985050000000     0.393284   
C381     C      0.795840000000     0.500490000000     0.933650000000     0.392246   
C382     C      0.672360000000     0.052970000000     0.561320000000     0.38838    
C383     C      0.780420000000     0.084170000000     0.526590000000     0.295242   
C384     C      0.686250000000     0.469550000000     0.962570000000     0.390065   
C385     C      0.880640000000     0.388470000000     0.951330000000    -0.011417   
C386     C      0.919030000000     0.432490000000     0.982810000000    -0.0121796  
C387     C      0.884450000000     0.350730000000     0.460650000000    -0.0141232  
C388     C      0.939430000000     0.401250000000     0.005950000000    -0.013774   
C389     C      0.918570000000     0.095280000000     0.539660000000    -0.022972   
C390     C      0.910840000000     0.058470000000     0.983980000000    -0.0194223  
C391     C      0.889090000000     0.116390000000     0.515000000000    -0.0226058  
C392     C      0.888380000000     0.088550000000     0.961250000000    -0.0281436  
C393     C      0.717600000000     0.331890000000     0.042970000000    -0.0123561  
C394     C      0.675460000000     0.362240000000     0.583360000000    -0.0103421  
C395     C      0.687510000000     0.303360000000     0.055260000000    -0.0113579  
C396     C      0.635180000000     0.354310000000     0.573370000000    -0.00945025 
C397     C      0.612820000000     0.077670000000     0.059140000000    -0.0124114  
C398     C      0.650790000000     0.111190000000     0.590980000000    -0.0133128  
C399     C      0.600140000000     0.113090000000     0.037550000000    -0.0127124  
C400     C      0.636880000000     0.146440000000     0.569460000000    -0.0125409  
C401     C      0.849020000000     0.466420000000     0.863440000000    -0.0140966  
C402     C      0.872260000000     0.525620000000     0.890010000000    -0.012258   
C403     C      0.799890000000     0.989420000000     0.858750000000    -0.00933364 
C404     C      0.831180000000     0.541100000000     0.888230000000    -0.00999591 
C405     C      0.650790000000     0.498110000000     0.867520000000    -0.0133144  
C406     C      0.596660000000     0.008310000000     0.920300000000    -0.0112668  
C407     C      0.670000000000     0.467210000000     0.893250000000    -0.013848   
C408     C      0.615140000000     0.976100000000     0.942430000000    -0.0106117  
C409     C      0.603520000000     0.979300000000     0.654910000000    -0.0132613  
C410     C      0.643590000000     0.016970000000     0.695730000000    -0.0146293  
C411     C      0.633320000000     0.447760000000     0.647640000000    -0.00982851 
C412     C      0.677590000000     0.989510000000     0.688330000000    -0.0105442  
C413     C      0.902010000000     0.420110000000     0.592670000000    -0.0265198  
C414     C      0.974600000000     0.022670000000     0.611910000000    -0.0225159  
C415     C      0.927900000000     0.451270000000     0.579320000000    -0.0242274  
C416     C      0.009120000000     0.027330000000     0.583530000000    -0.0224361  
C417     C      0.516640000000     0.095680000000     0.924650000000    -0.0106594  
C418     C      0.532060000000     0.139130000000     0.868660000000    -0.0125387  
C419     C      0.989220000000     0.124440000000     0.942460000000    -0.013033   
C420     C      0.006180000000     0.169140000000     0.887630000000    -0.0138767  
C421     C      0.564580000000     0.394000000000     0.897940000000    -0.0128758  
C422     C      0.033390000000     0.350790000000     0.851810000000    -0.0138334  
C423     C      0.593630000000     0.362390000000     0.905020000000    -0.00981702 
C424     C      0.062380000000     0.320560000000     0.864750000000    -0.00943117 
C425     C      0.528180000000     0.334200000000     0.678200000000    -0.01306    
C426     C      0.030300000000     0.384290000000     0.627810000000    -0.0106315  
C427     C      0.500240000000     0.358690000000     0.703090000000    -0.0147266  
C428     C      0.999000000000     0.406310000000     0.649130000000    -0.0148     
C429     C      0.528640000000     0.147510000000     0.701590000000    -0.01361    
C430     C      0.972250000000     0.122130000000     0.665910000000    -0.0118352  
C431     C      0.511570000000     0.186350000000     0.692630000000    -0.0117147  
C432     C      0.955050000000     0.160930000000     0.661770000000    -0.0109186  
C433     C      0.568470000000     0.514220000000     0.210460000000     0.390993   
C434     C      0.990160000000     0.925770000000     0.350070000000     0.39246    
C435     C      0.560000000000     0.506660000000     0.350470000000     0.38202    
C436     C      0.992210000000     0.931290000000     0.205780000000     0.386279   
C437     C      0.908740000000     0.983200000000     0.213830000000     0.307173   
C438     C      0.507490000000     0.579560000000     0.354250000000     0.392523   
C439     C      0.499130000000     0.592010000000     0.214440000000     0.395021   
C440     C      0.899130000000     0.994920000000     0.332450000000     0.397208   
C441     C      0.503030000000     0.707830000000     0.121330000000     0.391864   
C442     C      0.952190000000     0.835480000000     0.496190000000     0.387849   
C443     C      0.536180000000     0.825450000000     0.104040000000     0.385445   
C444     C      0.920350000000     0.728060000000     0.521130000000     0.297718   
C445     C      0.994620000000     0.685580000000     0.458280000000     0.394057   
C446     C      0.614330000000     0.806530000000     0.050350000000     0.39305    
C447     C      0.580150000000     0.674680000000     0.057800000000     0.392467   
C448     C      0.033010000000     0.818080000000     0.439970000000     0.400733   
C449     C      0.839520000000     0.507150000000     0.095690000000     0.30768    
C450     C      0.711310000000     0.899460000000     0.534510000000     0.396287   
C451     C      0.691650000000     0.480800000000     0.128010000000     0.395945   
C452     C      0.839340000000     0.939720000000     0.476210000000     0.393913   
C453     C      0.783430000000     0.001020000000     0.418650000000     0.392196   
C454     C      0.679630000000     0.553640000000     0.067920000000     0.385754   
C455     C      0.792450000000     0.581490000000     0.046080000000     0.297203   
C456     C      0.675860000000     0.967580000000     0.453250000000     0.390116   
C457     C      0.872280000000     0.884620000000     0.448920000000    -0.0109941  
C458     C      0.909490000000     0.928820000000     0.481840000000    -0.0136964  
C459     C      0.896480000000     0.855460000000     0.970580000000    -0.0139204  
C460     C      0.925680000000     0.897930000000     0.508670000000    -0.0132598  
C461     C      0.914470000000     0.601380000000     0.044600000000    -0.0220629  
C462     C      0.928080000000     0.529200000000     0.448720000000    -0.0246506  
C463     C      0.891320000000     0.630160000000     0.020970000000    -0.0236636  
C464     C      0.896280000000     0.555580000000     0.463970000000    -0.0246413  
C465     C      0.708160000000     0.832440000000     0.529130000000    -0.0124077  
C466     C      0.684160000000     0.863530000000     0.092570000000    -0.0107463  
C467     C      0.678680000000     0.803790000000     0.543090000000    -0.0117875  
C468     C      0.644710000000     0.853940000000     0.081550000000    -0.0094275  
C469     C      0.607330000000     0.577280000000     0.549150000000    -0.0128866  
C470     C      0.657590000000     0.612800000000     0.095140000000    -0.0135822  
C471     C      0.595970000000     0.612950000000     0.527300000000    -0.0123657  
C472     C      0.644190000000     0.648290000000     0.073670000000    -0.0125922  
C473     C      0.834200000000     0.972620000000     0.342220000000    -0.0130691  
C474     C      0.852960000000     0.034400000000     0.367740000000    -0.010322   
C475     C      0.788710000000     0.485530000000     0.345470000000    -0.0103005  
C476     C      0.810440000000     0.044950000000     0.370320000000    -0.0106162  
C477     C      0.633910000000     0.995710000000     0.361770000000    -0.0134201  
C478     C      0.583200000000     0.500300000000     0.416250000000    -0.0126282  
C479     C      0.657640000000     0.966060000000     0.384700000000    -0.0133586  
C480     C      0.603970000000     0.467720000000     0.435590000000    -0.00967813 
C481     C      0.601220000000     0.482760000000     0.156180000000    -0.0137906  
C482     C      0.638300000000     0.521300000000     0.198910000000    -0.0140919  
C483     C      0.633210000000     0.951610000000     0.152960000000    -0.00878669 
C484     C      0.671910000000     0.492770000000     0.196040000000    -0.011028   
C485     C      0.960130000000     0.984150000000     0.063070000000    -0.0290815  
C486     C      0.982760000000     0.534840000000     0.105000000000    -0.0217131  
C487     C      0.989680000000     0.994160000000     0.030690000000    -0.0211881  
C488     C      0.013440000000     0.543350000000     0.073290000000    -0.0246307  
C489     C      0.514440000000     0.596790000000     0.421330000000    -0.0103663  
C490     C      0.522410000000     0.643280000000     0.366750000000    -0.012004   
C491     C      0.987670000000     0.621310000000     0.442720000000    -0.0132341  
C492     C      0.997190000000     0.669750000000     0.389230000000    -0.013532   
C493     C      0.526140000000     0.900890000000     0.406440000000    -0.0139656  
C494     C      0.994860000000     0.858500000000     0.362050000000    -0.014321   
C495     C      0.560650000000     0.874200000000     0.409570000000    -0.009343   
C496     C      0.029010000000     0.831610000000     0.369600000000    -0.00986964 
C497     C      0.529580000000     0.839100000000     0.174070000000    -0.0130654  
C498     C      0.041040000000     0.888720000000     0.123580000000    -0.0101096  
C499     C      0.498800000000     0.864230000000     0.194500000000    -0.0146047  
C500     C      0.007520000000     0.911840000000     0.139620000000    -0.0147661  
C501     C      0.525520000000     0.652780000000     0.200430000000    -0.0138062  
C502     C      0.971320000000     0.631420000000     0.163100000000    -0.0115097  
C503     C      0.510510000000     0.692250000000     0.191240000000    -0.0115652  
C504     C      0.956440000000     0.671020000000     0.159280000000    -0.0106938  
C505     C      0.575410000000     0.504060000000     0.713770000000     0.392025   
C506     C      0.009440000000     0.920900000000     0.846740000000     0.38675    
C507     C      0.580590000000     0.506520000000     0.858290000000     0.386812   
C508     C      0.994320000000     0.926470000000     0.712750000000     0.383741   
C509     C      0.910320000000     0.979310000000     0.723840000000     0.306313   
C510     C      0.520120000000     0.573120000000     0.860250000000     0.392163   
C511     C      0.511180000000     0.582310000000     0.720550000000     0.394235   
C512     C      0.907300000000     0.991630000000     0.842570000000     0.395862   
C513     C      0.507380000000     0.699850000000     0.625140000000     0.391686   
C514     C      0.962450000000     0.838550000000     0.988930000000     0.386734   
C515     C      0.534250000000     0.821290000000     0.609890000000     0.385869   
C516     C      0.927390000000     0.733390000000     0.013350000000     0.29165    
C517     C      0.000750000000     0.686470000000     0.955620000000     0.395103   
C518     C      0.608110000000     0.806100000000     0.549690000000     0.392045   
C519     C      0.577210000000     0.673160000000     0.553410000000     0.394381   
C520     C      0.048970000000     0.814980000000     0.933830000000     0.401219   
C521     C      0.834030000000     0.503420000000     0.572030000000     0.30764    
C522     C      0.717010000000     0.899030000000     0.040360000000     0.397377   
C523     C      0.688500000000     0.476030000000     0.613520000000     0.395387   
C524     C      0.845490000000     0.940250000000     0.978960000000     0.393211   
C525     C      0.790830000000     0.002650000000     0.927770000000     0.392648   
C526     C      0.673290000000     0.551000000000     0.556050000000     0.389376   
C527     C      0.784020000000     0.578220000000     0.526040000000     0.300558   
C528     C      0.682950000000     0.970250000000     0.957600000000     0.38955    
C529     C      0.878090000000     0.887300000000     0.946930000000    -0.0113436  
C530     C      0.916380000000     0.931620000000     0.978100000000    -0.0125154  
C531     C      0.887070000000     0.853270000000     0.475600000000    -0.0137266  
C532     C      0.935860000000     0.900670000000     0.002450000000    -0.0137132  
C533     C      0.962370000000     0.533280000000     0.510090000000    -0.0208158  
C534     C      0.913670000000     0.558380000000     0.990750000000    -0.0193534  
C535     C      0.930380000000     0.559500000000     0.525370000000    -0.0268659  
C536     C      0.891080000000     0.587410000000     0.966740000000    -0.0283457  
C537     C      0.714900000000     0.831840000000     0.035490000000    -0.0122866  
C538     C      0.679820000000     0.863750000000     0.587420000000    -0.0106746  
C539     C      0.684900000000     0.803320000000     0.048110000000    -0.011454   
C540     C      0.639830000000     0.854590000000     0.577710000000    -0.00936383 
C541     C      0.613290000000     0.577850000000     0.058510000000    -0.0125811  
C542     C      0.653910000000     0.609670000000     0.585920000000    -0.0135302  
C543     C      0.599740000000     0.612880000000     0.036550000000    -0.0129883  
C544     C      0.642130000000     0.645830000000     0.564750000000    -0.0122168  
C545     C      0.840840000000     0.973080000000     0.852390000000    -0.0138651  
C546     C      0.864080000000     0.031930000000     0.880430000000    -0.0117273  
C547     C      0.808420000000     0.484310000000     0.865890000000    -0.00957078 
C548     C      0.822450000000     0.045920000000     0.882040000000    -0.010041   
C549     C      0.643650000000     0.999150000000     0.864100000000    -0.0128521  
C550     C      0.604360000000     0.512090000000     0.922830000000    -0.00871109 
C551     C      0.665440000000     0.969040000000     0.888600000000    -0.0138319  
C552     C      0.619090000000     0.478660000000     0.945650000000    -0.0110266  
C553     C      0.600630000000     0.475890000000     0.654210000000    -0.0131518  
C554     C      0.644210000000     0.509860000000     0.695160000000    -0.0141712  
C555     C      0.636780000000     0.951230000000     0.652790000000    -0.00884813 
C556     C      0.677000000000     0.482300000000     0.684190000000    -0.0110421  
C557     C      0.954190000000     0.970850000000     0.574390000000    -0.0282074  
C558     C      0.882380000000     0.452480000000     0.652860000000    -0.0229909  
C559     C      0.988990000000     0.975290000000     0.546330000000    -0.0209276  
C560     C      0.909540000000     0.482740000000     0.640610000000    -0.027703   
C561     C      0.519790000000     0.595610000000     0.926110000000    -0.010698   
C562     C      0.533120000000     0.638240000000     0.868790000000    -0.0126939  
C563     C      0.989960000000     0.622230000000     0.943240000000    -0.0120408  
C564     C      0.005350000000     0.666670000000     0.887760000000    -0.0139163  
C565     C      0.551760000000     0.896960000000     0.896850000000    -0.0137162  
C566     C      0.019150000000     0.853990000000     0.852640000000    -0.0147478  
C567     C      0.582540000000     0.866530000000     0.901840000000    -0.00951941 
C568     C      0.050220000000     0.824670000000     0.862770000000    -0.00931358 
C569     C      0.530540000000     0.834090000000     0.680300000000    -0.0128862  
C570     C      0.041580000000     0.883140000000     0.630290000000    -0.00989498 
C571     C      0.501120000000     0.860280000000     0.701380000000    -0.0149602  
C572     C      0.008550000000     0.906660000000     0.646570000000    -0.0144957  
C573     C      0.537840000000     0.642490000000     0.702220000000    -0.0135593  
C574     C      0.980550000000     0.619100000000     0.669120000000    -0.0115559  
C575     C      0.521990000000     0.681850000000     0.693360000000    -0.0120261  
C576     C      0.964520000000     0.658320000000     0.665360000000    -0.0111618  
Co1      Co     0.985750000000     0.010930000000     0.221160000000     0.870556   
Co2      Co     0.477180000000     0.508800000000     0.336380000000     0.861535   
Co3      Co     0.029800000000     0.038380000000     0.279440000000     0.820362   
Co4      Co     0.455170000000     0.463910000000     0.278300000000     0.82487    
Co5      Co     0.007160000000     0.212080000000     0.036700000000     0.831804   
Co6      Co     0.521780000000     0.308850000000     0.523670000000     0.834578   
Co7      Co     0.059070000000     0.252410000000     0.074370000000     0.833043   
Co8      Co     0.487060000000     0.261090000000     0.476640000000     0.851104   
Co9      Co     0.304150000000     0.006680000000     0.011070000000     0.844575   
Co10     Co     0.196270000000     0.476960000000     0.528460000000     0.853755   
Co11     Co     0.255760000000     0.015330000000     0.078860000000     0.828824   
Co12     Co     0.250610000000     0.445350000000     0.476210000000     0.839729   
Co13     Co     0.988170000000     0.006560000000     0.727410000000     0.86484    
Co14     Co     0.498830000000     0.498100000000     0.847410000000     0.871835   
Co15     Co     0.033550000000     0.036810000000     0.783020000000     0.81441    
Co16     Co     0.470060000000     0.454560000000     0.792140000000     0.820833   
Co17     Co     0.994730000000     0.207880000000     0.536940000000     0.834507   
Co18     Co     0.540530000000     0.310760000000     0.022620000000     0.838971   
Co19     Co     0.047490000000     0.249130000000     0.572520000000     0.844215   
Co20     Co     0.501110000000     0.265140000000     0.977500000000     0.838263   
Co21     Co     0.295870000000     0.008250000000     0.501630000000     0.841998   
Co22     Co     0.206700000000     0.480170000000     0.042760000000     0.850728   
Co23     Co     0.249270000000     0.018010000000     0.570220000000     0.832394   
Co24     Co     0.263420000000     0.449400000000     0.993170000000     0.83591    
Co25     Co     0.984010000000     0.513310000000     0.220460000000     0.863055   
Co26     Co     0.481220000000     0.005470000000     0.337320000000     0.868096   
Co27     Co     0.026040000000     0.541700000000     0.279440000000     0.82281    
Co28     Co     0.458470000000     0.960660000000     0.279540000000     0.825367   
Co29     Co     0.005820000000     0.711140000000     0.035970000000     0.831596   
Co30     Co     0.527830000000     0.809150000000     0.525980000000     0.837928   
Co31     Co     0.057630000000     0.752140000000     0.072320000000     0.833521   
Co32     Co     0.488500000000     0.763060000000     0.481200000000     0.844867   
Co33     Co     0.306930000000     0.506300000000     0.017530000000     0.84351    
Co34     Co     0.197370000000     0.979860000000     0.531950000000     0.850966   
Co35     Co     0.256820000000     0.516960000000     0.083750000000     0.827385   
Co36     Co     0.253520000000     0.949140000000     0.480930000000     0.842897   
Co37     Co     0.990760000000     0.504230000000     0.733810000000     0.87159    
Co38     Co     0.491310000000     0.001980000000     0.842030000000     0.864016   
Co39     Co     0.039530000000     0.532950000000     0.787260000000     0.818196   
Co40     Co     0.464000000000     0.958580000000     0.785550000000     0.819107   
Co41     Co     0.000080000000     0.707490000000     0.540110000000     0.834698   
Co42     Co     0.536710000000     0.810630000000     0.020040000000     0.837728   
Co43     Co     0.053820000000     0.748450000000     0.574710000000     0.836612   
Co44     Co     0.497290000000     0.764390000000     0.975570000000     0.838818   
Co45     Co     0.295320000000     0.502340000000     0.498010000000     0.842055   
Co46     Co     0.204370000000     0.980440000000     0.037310000000     0.852075   
Co47     Co     0.249890000000     0.511980000000     0.567340000000     0.832625   
Co48     Co     0.260250000000     0.950190000000     0.986240000000     0.837829   
Co49     Co     0.485260000000     0.010390000000     0.221930000000     0.869673   
Co50     Co     0.977820000000     0.509030000000     0.335920000000     0.862788   
Co51     Co     0.529260000000     0.037730000000     0.280280000000     0.821275   
Co52     Co     0.955780000000     0.464210000000     0.277800000000     0.8247     
Co53     Co     0.507230000000     0.211960000000     0.037250000000     0.832231   
Co54     Co     0.021070000000     0.308430000000     0.523790000000     0.834505   
Co55     Co     0.559080000000     0.252260000000     0.075010000000     0.833414   
Co56     Co     0.986200000000     0.261020000000     0.476580000000     0.850829   
Co57     Co     0.804240000000     0.006230000000     0.012120000000     0.844395   
Co58     Co     0.696620000000     0.477950000000     0.527910000000     0.853595   
Co59     Co     0.755700000000     0.015020000000     0.079820000000     0.828782   
Co60     Co     0.750870000000     0.446580000000     0.475470000000     0.839314   
Co61     Co     0.489850000000     0.007100000000     0.727340000000     0.864377   
Co62     Co     0.998790000000     0.497290000000     0.847980000000     0.871131   
Co63     Co     0.534660000000     0.037240000000     0.783380000000     0.814472   
Co64     Co     0.969660000000     0.453920000000     0.792770000000     0.821018   
Co65     Co     0.495970000000     0.208170000000     0.537180000000     0.834707   
Co66     Co     0.040570000000     0.310840000000     0.021940000000     0.8391     
Co67     Co     0.548740000000     0.249730000000     0.572320000000     0.845451   
Co68     Co     0.001020000000     0.265220000000     0.976890000000     0.837729   
Co69     Co     0.797720000000     0.008520000000     0.502100000000     0.840483   
Co70     Co     0.706210000000     0.480220000000     0.043360000000     0.850528   
Co71     Co     0.751120000000     0.018960000000     0.570430000000     0.830418   
Co72     Co     0.762930000000     0.449530000000     0.993780000000     0.835077   
Co73     Co     0.483140000000     0.513050000000     0.220930000000     0.861632   
Co74     Co     0.981630000000     0.006380000000     0.336480000000     0.871057   
Co75     Co     0.524970000000     0.541800000000     0.279740000000     0.822658   
Co76     Co     0.958360000000     0.961620000000     0.278990000000     0.82379    
Co77     Co     0.505440000000     0.711320000000     0.035250000000     0.831906   
Co78     Co     0.027630000000     0.807960000000     0.526650000000     0.837331   
Co79     Co     0.557100000000     0.752190000000     0.071890000000     0.833895   
Co80     Co     0.988200000000     0.761880000000     0.482130000000     0.843881   
Co81     Co     0.806570000000     0.506230000000     0.018290000000     0.84323    
Co82     Co     0.698890000000     0.980620000000     0.532860000000     0.850045   
Co83     Co     0.756220000000     0.517150000000     0.084280000000     0.826975   
Co84     Co     0.754330000000     0.950270000000     0.481080000000     0.841631   
Co85     Co     0.491330000000     0.504850000000     0.733180000000     0.872263   
Co86     Co     0.990790000000     0.001520000000     0.842070000000     0.863988   
Co87     Co     0.539970000000     0.533540000000     0.786720000000     0.818589   
Co88     Co     0.963130000000     0.957960000000     0.785970000000     0.819405   
Co89     Co     0.500070000000     0.708730000000     0.539350000000     0.8348     
Co90     Co     0.037050000000     0.810420000000     0.020360000000     0.83781    
Co91     Co     0.554130000000     0.749410000000     0.573760000000     0.838357   
Co92     Co     0.997550000000     0.764030000000     0.976110000000     0.83907    
Co93     Co     0.795770000000     0.503390000000     0.497300000000     0.841704   
Co94     Co     0.704370000000     0.980150000000     0.038160000000     0.851843   
Co95     Co     0.750160000000     0.513360000000     0.566440000000     0.831868   
Co96     Co     0.760300000000     0.949800000000     0.987280000000     0.837964   
H1       H      0.424980000000     0.428020000000     0.436710000000     0.0464102  
H2       H      0.385090000000     0.382760000000     0.407220000000     0.042587   
H3       H      0.403080000000     0.332720000000     0.954670000000     0.0544885  
H4       H      0.405110000000     0.453320000000     0.476780000000     0.0537503  
H5       H      0.452290000000     0.404190000000     0.497210000000     0.0455784  
H6       H      0.425680000000     0.399510000000     0.035170000000     0.0427645  
H7       H      0.352020000000     0.381640000000     0.943700000000     0.0489699  
H8       H      0.380930000000     0.348940000000     0.998680000000     0.0460006  
H9       H      0.444490000000     0.048540000000     0.453610000000     0.0447325  
H10      H      0.443830000000     0.104120000000     0.035870000000     0.0472847  
H11      H      0.399840000000     0.156200000000     0.023090000000     0.0489598  
H12      H      0.405900000000     0.018150000000     0.452440000000     0.0479505  
H13      H      0.394100000000     0.083590000000     0.420790000000     0.0417305  
H14      H      0.357860000000     0.068050000000     0.455700000000     0.0590573  
H15      H      0.404000000000     0.099000000000     0.070470000000     0.0413399  
H16      H      0.359100000000     0.127930000000     0.025910000000     0.0460382  
H17      H      0.197160000000     0.342250000000     0.118720000000     0.0393124  
H18      H      0.246780000000     0.320090000000     0.048150000000     0.0398184  
H19      H      0.182440000000     0.284870000000     0.565910000000     0.0432502  
H20      H      0.183550000000     0.389770000000     0.113930000000     0.0489548  
H21      H      0.127790000000     0.348890000000     0.112960000000     0.0372998  
H22      H      0.121830000000     0.377080000000     0.556750000000     0.0558864  
H23      H      0.199660000000     0.335310000000     0.494860000000     0.0485208  
H24      H      0.168070000000     0.281910000000     0.517400000000     0.0408908  
H25      H      0.140780000000     0.107880000000     0.123340000000     0.0427497  
H26      H      0.093010000000     0.072970000000     0.084460000000     0.0390796  
H27      H      0.058200000000     0.107780000000     0.529130000000     0.0478017  
H28      H      0.188460000000     0.112590000000     0.102700000000     0.051823   
H29      H      0.145850000000     0.169410000000     0.095720000000     0.0502934  
H30      H      0.155110000000     0.150720000000     0.544820000000     0.0442276  
H31      H      0.100170000000     0.051420000000     0.537610000000     0.0487723  
H32      H      0.104730000000     0.111880000000     0.505820000000     0.0425565  
H33      H      0.356470000000     0.528240000000     0.396380000000     0.0490706  
H34      H      0.337090000000     0.449520000000     0.361710000000     0.0488368  
H35      H      0.274390000000     0.959360000000     0.357520000000     0.048855   
H36      H      0.362530000000     0.558030000000     0.354330000000     0.043548   
H37      H      0.297390000000     0.564700000000     0.389690000000     0.0469208  
H38      H      0.301070000000     0.054240000000     0.340510000000     0.0391213  
H39      H      0.334510000000     0.459990000000     0.311080000000     0.051818   
H40      H      0.281200000000     0.996570000000     0.322650000000     0.0383674  
H41      H      0.097070000000     0.023800000000     0.427630000000     0.0436687  
H42      H      0.147030000000     0.021890000000     0.364790000000     0.0438192  
H43      H      0.184240000000     0.466890000000     0.373440000000     0.047407   
H44      H      0.055560000000     0.997590000000     0.426280000000     0.0491569  
H45      H      0.102020000000     0.967150000000     0.469090000000     0.0485475  
H46      H      0.091120000000     0.441820000000     0.427570000000     0.0379647  
H47      H      0.132520000000     0.490900000000     0.327480000000     0.0445176  
H48      H      0.144380000000     0.438200000000     0.370870000000     0.0408689  
H49      H      0.147040000000     0.040320000000     0.174760000000     0.0462787  
H50      H      0.105480000000     0.999450000000     0.125740000000     0.0485352  
H51      H      0.134690000000     0.436750000000     0.131730000000     0.0444182  
H52      H      0.140580000000     0.027570000000     0.225100000000     0.0505291  
H53      H      0.201510000000     0.000590000000     0.192350000000     0.0483465  
H54      H      0.170190000000     0.472720000000     0.220960000000     0.039481   
H55      H      0.074080000000     0.967950000000     0.150710000000     0.0490884  
H56      H      0.129700000000     0.435520000000     0.183570000000     0.0371613  
H57      H      0.455490000000     0.052650000000     0.099550000000     0.0472969  
H58      H      0.433480000000     0.496670000000     0.058530000000     0.0570734  
H59      H      0.481630000000     0.488200000000     0.006320000000     0.0365032  
H60      H      0.493330000000     0.037680000000     0.130810000000     0.0538416  
H61      H      0.514000000000     0.074200000000     0.067500000000     0.0389241  
H62      H      0.539430000000     0.030840000000     0.076830000000     0.0409314  
H63      H      0.458200000000     0.453590000000     0.070090000000     0.0391496  
H64      H      0.516090000000     0.975870000000     0.033680000000     0.0413763  
H65      H      0.060130000000     0.143470000000     0.375760000000     0.0430229  
H66      H      0.046450000000     0.097560000000     0.433340000000     0.0396876  
H67      H      0.488440000000     0.114360000000     0.473200000000     0.0499539  
H68      H      0.030060000000     0.143820000000     0.335040000000     0.0456303  
H69      H      0.014030000000     0.194710000000     0.380850000000     0.0492975  
H70      H      0.474470000000     0.166400000000     0.374080000000     0.0442677  
H71      H      0.509730000000     0.064670000000     0.430120000000     0.0456733  
H72      H      0.459830000000     0.114370000000     0.431660000000     0.0493248  
H73      H      0.468650000000     0.350610000000     0.378350000000     0.0488605  
H74      H      0.997610000000     0.397090000000     0.432380000000     0.0508274  
H75      H      0.066920000000     0.380620000000     0.438110000000     0.0485066  
H76      H      0.485750000000     0.359530000000     0.329410000000     0.0499702  
H77      H      0.520420000000     0.305840000000     0.364240000000     0.0477508  
H78      H      0.550830000000     0.340820000000     0.344510000000     0.0389746  
H79      H      0.026650000000     0.431930000000     0.410260000000     0.05187    
H80      H      0.074310000000     0.385520000000     0.386450000000     0.0390607  
H81      H      0.568650000000     0.396210000000     0.140280000000     0.0358077  
H82      H      0.056050000000     0.342830000000     0.190070000000     0.040195   
H83      H      0.999550000000     0.362760000000     0.226830000000     0.0475311  
H84      H      0.547780000000     0.395750000000     0.094290000000     0.0498462  
H85      H      0.515970000000     0.442030000000     0.133980000000     0.0540757  
H86      H      0.483460000000     0.407470000000     0.125310000000     0.04711    
H87      H      0.020070000000     0.311940000000     0.179910000000     0.0454321  
H88      H      0.969460000000     0.358100000000     0.187370000000     0.0445402  
H89      H      0.990690000000     0.121300000000     0.135680000000     0.045396   
H90      H      0.054420000000     0.144780000000     0.180810000000     0.045865   
H91      H      0.038170000000     0.208440000000     0.190270000000     0.0490952  
H92      H      0.449830000000     0.110430000000     0.167260000000     0.0469753  
H93      H      0.441870000000     0.171690000000     0.134320000000     0.0485969  
H94      H      0.441040000000     0.173440000000     0.186040000000     0.0404311  
H95      H      0.039830000000     0.148050000000     0.230770000000     0.0488826  
H96      H      0.994810000000     0.198030000000     0.217550000000     0.0397524  
H97      H      0.436940000000     0.438020000000     0.955120000000     0.0421043  
H98      H      0.398110000000     0.392900000000     0.922980000000     0.0428189  
H99      H      0.389210000000     0.325700000000     0.443250000000     0.0534393  
H100     H      0.418250000000     0.457710000000     0.999020000000     0.0443484  
H101     H      0.469860000000     0.408440000000     0.008790000000     0.0459791  
H102     H      0.405090000000     0.398310000000     0.518820000000     0.0395248  
H103     H      0.338100000000     0.374240000000     0.427530000000     0.0492618  
H104     H      0.364030000000     0.343700000000     0.485060000000     0.0450951  
H105     H      0.442190000000     0.058990000000     0.974760000000     0.0430947  
H106     H      0.449270000000     0.078490000000     0.525070000000     0.0452534  
H107     H      0.401080000000     0.128290000000     0.528570000000     0.0487605  
H108     H      0.401210000000     0.031110000000     0.977420000000     0.049646   
H109     H      0.398380000000     0.088600000000     0.929800000000     0.0398421  
H110     H      0.357880000000     0.083200000000     0.963240000000     0.0592394  
H111     H      0.412970000000     0.063040000000     0.560040000000     0.040825   
H112     H      0.362570000000     0.097640000000     0.527360000000     0.051551   
H113     H      0.186210000000     0.339300000000     0.603970000000     0.0389597  
H114     H      0.231440000000     0.316150000000     0.530110000000     0.0401302  
H115     H      0.196900000000     0.287520000000     0.080740000000     0.0425038  
H116     H      0.174690000000     0.386880000000     0.600040000000     0.0484468  
H117     H      0.116630000000     0.349720000000     0.601370000000     0.0375301  
H118     H      0.133070000000     0.377510000000     0.069840000000     0.0553737  
H119     H      0.217080000000     0.337770000000     0.010400000000     0.0488665  
H120     H      0.185920000000     0.283690000000     0.031210000000     0.0394975  
H121     H      0.131610000000     0.106830000000     0.619060000000     0.0426559  
H122     H      0.084090000000     0.070730000000     0.582440000000     0.0394481  
H123     H      0.069310000000     0.111250000000     0.031260000000     0.0475022  
H124     H      0.179040000000     0.111720000000     0.597840000000     0.0523943  
H125     H      0.136410000000     0.167990000000     0.589840000000     0.0502377  
H126     H      0.165840000000     0.153290000000     0.050670000000     0.0436895  
H127     H      0.110050000000     0.054890000000     0.039410000000     0.0481106  
H128     H      0.116270000000     0.115530000000     0.008820000000     0.0426396  
H129     H      0.378420000000     0.518400000000     0.919550000000     0.0494788  
H130     H      0.352010000000     0.445670000000     0.886610000000     0.0481001  
H131     H      0.280280000000     0.967240000000     0.863500000000     0.0484021  
H132     H      0.391220000000     0.548320000000     0.879000000000     0.0448161  
H133     H      0.325430000000     0.563180000000     0.908300000000     0.044466   
H134     H      0.316050000000     0.059370000000     0.852380000000     0.0388615  
H135     H      0.353190000000     0.452190000000     0.835180000000     0.0521162  
H136     H      0.292160000000     0.004810000000     0.830660000000     0.0379156  
H137     H      0.110120000000     0.034060000000     0.927330000000     0.0429564  
H138     H      0.157500000000     0.025490000000     0.865390000000     0.0431137  
H139     H      0.201610000000     0.466130000000     0.886680000000     0.0474933  
H140     H      0.065760000000     0.011880000000     0.928860000000     0.0486674  
H141     H      0.109730000000     0.980400000000     0.973220000000     0.0497501  
H142     H      0.103240000000     0.453410000000     0.938400000000     0.0438277  
H143     H      0.152380000000     0.490180000000     0.836800000000     0.0424588  
H144     H      0.159720000000     0.440210000000     0.884360000000     0.0391676  
H145     H      0.145890000000     0.039950000000     0.674280000000     0.0463045  
H146     H      0.102720000000     0.997910000000     0.627160000000     0.0478369  
H147     H      0.128480000000     0.433330000000     0.620640000000     0.0450188  
H148     H      0.143050000000     0.025720000000     0.724460000000     0.0502303  
H149     H      0.202770000000     0.001780000000     0.686640000000     0.0485644  
H150     H      0.177060000000     0.458860000000     0.707800000000     0.0391133  
H151     H      0.073910000000     0.965160000000     0.653690000000     0.0484018  
H152     H      0.131070000000     0.425830000000     0.672040000000     0.0369341  
H153     H      0.457910000000     0.044040000000     0.608480000000     0.0436889  
H154     H      0.375230000000     0.422870000000     0.578780000000     0.0445089  
H155     H      0.426610000000     0.456500000000     0.547540000000     0.043048   
H156     H      0.493050000000     0.025960000000     0.641320000000     0.0555492  
H157     H      0.518990000000     0.056700000000     0.576430000000     0.0370256  
H158     H      0.539200000000     0.011760000000     0.589440000000     0.0422809  
H159     H      0.417340000000     0.392860000000     0.584320000000     0.0411765  
H160     H      0.509340000000     0.957170000000     0.549710000000     0.0423308  
H161     H      0.061360000000     0.141710000000     0.875580000000     0.0435005  
H162     H      0.044740000000     0.097450000000     0.935970000000     0.040954   
H163     H      0.488520000000     0.119500000000     0.974730000000     0.0508429  
H164     H      0.029800000000     0.143000000000     0.836140000000     0.0462904  
H165     H      0.019230000000     0.195800000000     0.880740000000     0.0488095  
H166     H      0.478300000000     0.170380000000     0.875240000000     0.0441064  
H167     H      0.506540000000     0.068120000000     0.933330000000     0.0473195  
H168     H      0.460690000000     0.120860000000     0.932570000000     0.0485616  
H169     H      0.503240000000     0.344360000000     0.868150000000     0.0504337  
H170     H      0.049140000000     0.399010000000     0.922570000000     0.0534578  
H171     H      0.107930000000     0.364200000000     0.932520000000     0.0492158  
H172     H      0.527970000000     0.350830000000     0.822220000000     0.0481015  
H173     H      0.549200000000     0.294030000000     0.864520000000     0.047285   
H174     H      0.585960000000     0.322520000000     0.844110000000     0.0369876  
H175     H      0.083770000000     0.418270000000     0.888840000000     0.0452319  
H176     H      0.118560000000     0.361520000000     0.881450000000     0.0371653  
H177     H      0.559950000000     0.392630000000     0.637220000000     0.0368047  
H178     H      0.056260000000     0.336290000000     0.688040000000     0.0402569  
H179     H      0.006050000000     0.353590000000     0.734290000000     0.0469827  
H180     H      0.531280000000     0.392170000000     0.596020000000     0.0490201  
H181     H      0.504320000000     0.436260000000     0.641090000000     0.0479305  
H182     H      0.472730000000     0.399590000000     0.638250000000     0.0488019  
H183     H      0.019560000000     0.304580000000     0.683430000000     0.0450866  
H184     H      0.969540000000     0.348810000000     0.700880000000     0.04462    
H185     H      0.987860000000     0.114780000000     0.638440000000     0.0451261  
H186     H      0.051250000000     0.142000000000     0.680510000000     0.0456072  
H187     H      0.032620000000     0.205420000000     0.688980000000     0.0489869  
H188     H      0.449690000000     0.104300000000     0.671200000000     0.0477921  
H189     H      0.438010000000     0.164500000000     0.637310000000     0.0491565  
H190     H      0.438760000000     0.167500000000     0.688810000000     0.0407728  
H191     H      0.038170000000     0.146000000000     0.730750000000     0.0484092  
H192     H      0.990560000000     0.193850000000     0.717810000000     0.0396699  
H193     H      0.429140000000     0.934500000000     0.455150000000     0.0436461  
H194     H      0.392230000000     0.888170000000     0.421430000000     0.0432688  
H195     H      0.399240000000     0.831730000000     0.951640000000     0.0543021  
H196     H      0.406950000000     0.956100000000     0.496590000000     0.0498785  
H197     H      0.455970000000     0.905750000000     0.512770000000     0.0444082  
H198     H      0.421060000000     0.899860000000     0.030970000000     0.0428999  
H199     H      0.348970000000     0.880970000000     0.938660000000     0.0493446  
H200     H      0.376590000000     0.849150000000     0.994870000000     0.0461184  
H201     H      0.447100000000     0.544910000000     0.429850000000     0.0545377  
H202     H      0.446170000000     0.606580000000     0.040430000000     0.0477544  
H203     H      0.401160000000     0.657400000000     0.025580000000     0.0504242  
H204     H      0.415030000000     0.508140000000     0.432240000000     0.0475887  
H205     H      0.384210000000     0.573700000000     0.440710000000     0.0440035  
H206     H      0.371080000000     0.539370000000     0.477290000000     0.0629956  
H207     H      0.406360000000     0.602080000000     0.075190000000     0.0411827  
H208     H      0.361100000000     0.628330000000     0.029400000000     0.0461357  
H209     H      0.196720000000     0.841860000000     0.111830000000     0.0393879  
H210     H      0.244390000000     0.820360000000     0.039620000000     0.0398961  
H211     H      0.189460000000     0.787030000000     0.570280000000     0.0433455  
H212     H      0.183040000000     0.889400000000     0.107820000000     0.0490795  
H213     H      0.127060000000     0.848770000000     0.108060000000     0.0373266  
H214     H      0.125550000000     0.877240000000     0.561440000000     0.0555542  
H215     H      0.205150000000     0.837660000000     0.499000000000     0.0486832  
H216     H      0.175390000000     0.783270000000     0.521740000000     0.0405895  
H217     H      0.140930000000     0.609510000000     0.122850000000     0.0429645  
H218     H      0.094150000000     0.572490000000     0.084070000000     0.0390473  
H219     H      0.065900000000     0.611440000000     0.520460000000     0.048122   
H220     H      0.188570000000     0.614710000000     0.102290000000     0.0519475  
H221     H      0.145450000000     0.670750000000     0.094040000000     0.0504607  
H222     H      0.162900000000     0.649760000000     0.541250000000     0.0437706  
H223     H      0.103850000000     0.553410000000     0.531040000000     0.0483235  
H224     H      0.114010000000     0.613900000000     0.500680000000     0.0419037  
H225     H      0.361680000000     0.027130000000     0.397150000000     0.0479383  
H226     H      0.341190000000     0.948160000000     0.363910000000     0.0481548  
H227     H      0.270230000000     0.460610000000     0.352480000000     0.0485274  
H228     H      0.367580000000     0.056480000000     0.354650000000     0.0429986  
H229     H      0.303170000000     0.064660000000     0.390500000000     0.0463056  
H230     H      0.296380000000     0.555650000000     0.339260000000     0.0389854  
H231     H      0.337220000000     0.958460000000     0.313450000000     0.0514396  
H232     H      0.277970000000     0.498350000000     0.319090000000     0.0383729  
H233     H      0.094520000000     0.525380000000     0.426320000000     0.0428339  
H234     H      0.144160000000     0.521920000000     0.363120000000     0.0441853  
H235     H      0.188770000000     0.968330000000     0.376530000000     0.0473147  
H236     H      0.052730000000     0.499500000000     0.425440000000     0.0492088  
H237     H      0.099220000000     0.468630000000     0.467510000000     0.048059   
H238     H      0.095720000000     0.940590000000     0.428230000000     0.0382797  
H239     H      0.137000000000     0.990020000000     0.329400000000     0.0443789  
H240     H      0.150290000000     0.938140000000     0.373350000000     0.0409768  
H241     H      0.145280000000     0.543810000000     0.177100000000     0.0459137  
H242     H      0.105740000000     0.500110000000     0.128700000000     0.0482701  
H243     H      0.133060000000     0.935330000000     0.126230000000     0.0441366  
H244     H      0.138130000000     0.532300000000     0.227650000000     0.0506227  
H245     H      0.200250000000     0.505860000000     0.196630000000     0.0487158  
H246     H      0.170920000000     0.967530000000     0.216000000000     0.0395125  
H247     H      0.074780000000     0.468640000000     0.154340000000     0.0488528  
H248     H      0.129040000000     0.932360000000     0.177740000000     0.0368205  
H249     H      0.457110000000     0.553170000000     0.101470000000     0.0483561  
H250     H      0.431830000000     0.996630000000     0.056200000000     0.0563598  
H251     H      0.478290000000     0.990540000000     0.002180000000     0.0368697  
H252     H      0.493610000000     0.537970000000     0.134170000000     0.0543023  
H253     H      0.516980000000     0.572650000000     0.070700000000     0.0387828  
H254     H      0.541100000000     0.529010000000     0.081980000000     0.0414026  
H255     H      0.457990000000     0.953870000000     0.065770000000     0.0391099  
H256     H      0.517890000000     0.473510000000     0.039580000000     0.0415944  
H257     H      0.054140000000     0.647810000000     0.373750000000     0.0433774  
H258     H      0.045150000000     0.600490000000     0.431310000000     0.0393276  
H259     H      0.487880000000     0.616360000000     0.474250000000     0.0504372  
H260     H      0.021240000000     0.648080000000     0.335410000000     0.0451068  
H261     H      0.007140000000     0.697810000000     0.383110000000     0.0491579  
H262     H      0.466420000000     0.669320000000     0.377550000000     0.0438325  
H263     H      0.508370000000     0.567900000000     0.429140000000     0.044508   
H264     H      0.456700000000     0.616200000000     0.434790000000     0.0482432  
H265     H      0.473540000000     0.848570000000     0.378670000000     0.0486601  
H266     H      0.002330000000     0.896140000000     0.433200000000     0.0493665  
H267     H      0.071440000000     0.878180000000     0.438120000000     0.0483383  
H268     H      0.491630000000     0.856150000000     0.329860000000     0.0496002  
H269     H      0.523960000000     0.802130000000     0.366900000000     0.0475165  
H270     H      0.555640000000     0.835490000000     0.345920000000     0.0386485  
H271     H      0.032130000000     0.929660000000     0.409590000000     0.0511724  
H272     H      0.078000000000     0.881580000000     0.386320000000     0.0391836  
H273     H      0.567220000000     0.896020000000     0.137060000000     0.0358776  
H274     H      0.057050000000     0.842230000000     0.188150000000     0.0402041  
H275     H      0.000810000000     0.860650000000     0.226280000000     0.0470943  
H276     H      0.544770000000     0.895380000000     0.091900000000     0.0497965  
H277     H      0.513370000000     0.940820000000     0.132950000000     0.0546698  
H278     H      0.481300000000     0.905640000000     0.125210000000     0.0471919  
H279     H      0.021600000000     0.810460000000     0.178850000000     0.0458174  
H280     H      0.970090000000     0.855580000000     0.187390000000     0.0443731  
H281     H      0.986900000000     0.623660000000     0.135750000000     0.0455778  
H282     H      0.051350000000     0.647250000000     0.180880000000     0.045903   
H283     H      0.035500000000     0.711070000000     0.189390000000     0.0489028  
H284     H      0.445760000000     0.613390000000     0.166620000000     0.0466711  
H285     H      0.438290000000     0.674320000000     0.132530000000     0.0487007  
H286     H      0.437310000000     0.676750000000     0.184190000000     0.0403269  
H287     H      0.036440000000     0.651070000000     0.230680000000     0.0492101  
H288     H      0.992000000000     0.701270000000     0.216750000000     0.0394768  
H289     H      0.434350000000     0.936750000000     0.950390000000     0.0425791  
H290     H      0.395500000000     0.891360000000     0.918460000000     0.0431556  
H291     H      0.390890000000     0.829840000000     0.456640000000     0.0540986  
H292     H      0.415100000000     0.957520000000     0.993500000000     0.0455222  
H293     H      0.465840000000     0.907930000000     0.005360000000     0.04585    
H294     H      0.409430000000     0.899050000000     0.535230000000     0.0417576  
H295     H      0.344030000000     0.879630000000     0.437910000000     0.0495838  
H296     H      0.366450000000     0.849240000000     0.498080000000     0.0463646  
H297     H      0.445540000000     0.558840000000     0.981440000000     0.0430974  
H298     H      0.485530000000     0.549740000000     0.497660000000     0.0375993  
H299     H      0.441300000000     0.580730000000     0.542850000000     0.0457389  
H300     H      0.405010000000     0.530370000000     0.985310000000     0.0490553  
H301     H      0.401420000000     0.586070000000     0.935350000000     0.0388578  
H302     H      0.360990000000     0.581330000000     0.968930000000     0.0598936  
H303     H      0.472390000000     0.515410000000     0.534200000000     0.0397941  
H304     H      0.408900000000     0.543960000000     0.544850000000     0.0554466  
H305     H      0.191540000000     0.841940000000     0.608090000000     0.0392637  
H306     H      0.237380000000     0.819740000000     0.534420000000     0.0405743  
H307     H      0.195470000000     0.787460000000     0.073490000000     0.042578   
H308     H      0.178110000000     0.889140000000     0.603890000000     0.0484483  
H309     H      0.121900000000     0.849330000000     0.605830000000     0.0375118  
H310     H      0.131340000000     0.877480000000     0.064920000000     0.0553875  
H311     H      0.213470000000     0.838360000000     0.003040000000     0.0486683  
H312     H      0.182950000000     0.784040000000     0.024370000000     0.0395295  
H313     H      0.136580000000     0.606140000000     0.614690000000     0.0436138  
H314     H      0.087170000000     0.573030000000     0.575530000000     0.0430384  
H315     H      0.069580000000     0.610370000000     0.031150000000     0.0471062  
H316     H      0.184450000000     0.609130000000     0.594030000000     0.0526933  
H317     H      0.144140000000     0.667260000000     0.586180000000     0.0505175  
H318     H      0.165380000000     0.653940000000     0.049270000000     0.0437296  
H319     H      0.112070000000     0.554820000000     0.039070000000     0.0482209  
H320     H      0.116250000000     0.615350000000     0.008280000000     0.0420845  
H321     H      0.372850000000     0.024490000000     0.909480000000     0.0491426  
H322     H      0.345970000000     0.950450000000     0.873340000000     0.048483   
H323     H      0.287190000000     0.463030000000     0.870390000000     0.0479937  
H324     H      0.382210000000     0.055150000000     0.868650000000     0.0440067  
H325     H      0.317740000000     0.067100000000     0.903060000000     0.0446744  
H326     H      0.326430000000     0.553600000000     0.857900000000     0.0390806  
H327     H      0.344310000000     0.961280000000     0.822690000000     0.0517659  
H328     H      0.302240000000     0.498560000000     0.836960000000     0.0381631  
H329     H      0.120230000000     0.534970000000     0.930840000000     0.0426111  
H330     H      0.166960000000     0.522770000000     0.869600000000     0.0430908  
H331     H      0.196310000000     0.970800000000     0.880910000000     0.0471912  
H332     H      0.073910000000     0.516880000000     0.931860000000     0.0479118  
H333     H      0.113550000000     0.481120000000     0.976830000000     0.0504258  
H334     H      0.100740000000     0.951590000000     0.935170000000     0.0415704  
H335     H      0.145110000000     0.992160000000     0.832410000000     0.0429033  
H336     H      0.156260000000     0.942280000000     0.879430000000     0.0401337  
H337     H      0.147080000000     0.533960000000     0.676780000000     0.046892   
H338     H      0.099530000000     0.495350000000     0.629360000000     0.0491451  
H339     H      0.131980000000     0.934620000000     0.625260000000     0.0440982  
H340     H      0.146750000000     0.516450000000     0.725930000000     0.0501451  
H341     H      0.203990000000     0.494450000000     0.683620000000     0.0485084  
H342     H      0.175230000000     0.967320000000     0.712060000000     0.0394549  
H343     H      0.072510000000     0.461170000000     0.655840000000     0.0492879  
H344     H      0.131600000000     0.931160000000     0.676760000000     0.0368521  
H345     H      0.353880000000     0.459110000000     0.644900000000     0.0476738  
H346     H      0.427660000000     0.989480000000     0.567200000000     0.0511529  
H347     H      0.474700000000     0.974280000000     0.515660000000     0.0389489  
H348     H      0.383300000000     0.445770000000     0.684720000000     0.0428993  
H349     H      0.397190000000     0.508560000000     0.649880000000     0.0484593  
H350     H      0.438010000000     0.476750000000     0.654020000000     0.0572094  
H351     H      0.447280000000     0.944530000000     0.580400000000     0.0394924  
H352     H      0.458760000000     0.443460000000     0.585080000000     0.0396797  
H353     H      0.062380000000     0.642490000000     0.877420000000     0.043448   
H354     H      0.047460000000     0.599430000000     0.939140000000     0.0411909  
H355     H      0.487320000000     0.618600000000     0.974180000000     0.0512036  
H356     H      0.031820000000     0.640390000000     0.837510000000     0.0464821  
H357     H      0.016580000000     0.694060000000     0.880420000000     0.0488031  
H358     H      0.477320000000     0.666160000000     0.873380000000     0.0436841  
H359     H      0.512090000000     0.567480000000     0.935740000000     0.0474787  
H360     H      0.461990000000     0.616850000000     0.930640000000     0.0475068  
H361     H      0.491860000000     0.846930000000     0.869600000000     0.0498853  
H362     H      0.034190000000     0.899060000000     0.922950000000     0.0526103  
H363     H      0.096960000000     0.868810000000     0.929490000000     0.0487691  
H364     H      0.513040000000     0.853630000000     0.821940000000     0.04913    
H365     H      0.538900000000     0.797440000000     0.861470000000     0.0474764  
H366     H      0.573790000000     0.827540000000     0.840140000000     0.0375166  
H367     H      0.067530000000     0.922840000000     0.891230000000     0.0484316  
H368     H      0.105160000000     0.868150000000     0.877920000000     0.0376442  
H369     H      0.569840000000     0.889810000000     0.643790000000     0.0356584  
H370     H      0.057870000000     0.835790000000     0.694050000000     0.0401091  
H371     H      0.003260000000     0.855780000000     0.733480000000     0.0476001  
H372     H      0.547490000000     0.890210000000     0.598470000000     0.0489417  
H373     H      0.517550000000     0.936330000000     0.639440000000     0.053703   
H374     H      0.484170000000     0.902200000000     0.631950000000     0.0482106  
H375     H      0.021270000000     0.805030000000     0.685250000000     0.044224   
H376     H      0.971070000000     0.850970000000     0.695850000000     0.0445176  
H377     H      0.995550000000     0.611480000000     0.641440000000     0.0492124  
H378     H      0.060620000000     0.636040000000     0.681900000000     0.0455153  
H379     H      0.044970000000     0.700000000000     0.689910000000     0.0492987  
H380     H      0.456990000000     0.601550000000     0.673040000000     0.0504052  
H381     H      0.446120000000     0.661960000000     0.639970000000     0.0512822  
H382     H      0.448180000000     0.664840000000     0.691360000000     0.0414335  
H383     H      0.048950000000     0.640740000000     0.732300000000     0.0487114  
H384     H      0.003210000000     0.690370000000     0.720130000000     0.0396787  
H385     H      0.925350000000     0.428240000000     0.437040000000     0.0464901  
H386     H      0.885360000000     0.383260000000     0.407150000000     0.042593   
H387     H      0.902640000000     0.332650000000     0.954920000000     0.0545924  
H388     H      0.905350000000     0.453580000000     0.477030000000     0.0537933  
H389     H      0.952040000000     0.404120000000     0.497730000000     0.0456373  
H390     H      0.925540000000     0.399220000000     0.035470000000     0.0428325  
H391     H      0.851370000000     0.381470000000     0.944470000000     0.0490123  
H392     H      0.880740000000     0.348690000000     0.999130000000     0.0459155  
H393     H      0.955660000000     0.053270000000     0.480140000000     0.0412599  
H394     H      0.943650000000     0.104340000000     0.036080000000     0.047314   
H395     H      0.899740000000     0.156490000000     0.023300000000     0.049078   
H396     H      0.922930000000     0.017310000000     0.489200000000     0.0446134  
H397     H      0.905790000000     0.066120000000     0.434740000000     0.0442295  
H398     H      0.868520000000     0.056600000000     0.471100000000     0.0608666  
H399     H      0.903890000000     0.099390000000     0.070810000000     0.0413516  
H400     H      0.858930000000     0.128310000000     0.026300000000     0.0459695  
H401     H      0.697040000000     0.342360000000     0.119540000000     0.039312   
H402     H      0.746660000000     0.320210000000     0.049000000000     0.0398061  
H403     H      0.683350000000     0.285770000000     0.564920000000     0.0432231  
H404     H      0.683310000000     0.389860000000     0.114700000000     0.0489863  
H405     H      0.627660000000     0.348830000000     0.113820000000     0.0373171  
H406     H      0.622570000000     0.377920000000     0.556180000000     0.0558353  
H407     H      0.700370000000     0.336430000000     0.494010000000     0.0485338  
H408     H      0.668890000000     0.282940000000     0.516420000000     0.0408567  
H409     H      0.640820000000     0.107750000000     0.123830000000     0.0427553  
H410     H      0.593080000000     0.072830000000     0.084810000000     0.0391008  
H411     H      0.559820000000     0.108220000000     0.529850000000     0.0478825  
H412     H      0.688520000000     0.112460000000     0.103240000000     0.0518091  
H413     H      0.645930000000     0.169290000000     0.096230000000     0.0503236  
H414     H      0.656770000000     0.151590000000     0.543980000000     0.0440669  
H415     H      0.601710000000     0.051990000000     0.539120000000     0.0484057  
H416     H      0.606250000000     0.112040000000     0.506220000000     0.0427233  
H417     H      0.857230000000     0.529060000000     0.395590000000     0.0490777  
H418     H      0.837520000000     0.450370000000     0.360950000000     0.0488953  
H419     H      0.774560000000     0.961750000000     0.357630000000     0.0488946  
H420     H      0.863330000000     0.558800000000     0.353500000000     0.0435453  
H421     H      0.798240000000     0.565670000000     0.388930000000     0.047025   
H422     H      0.801820000000     0.056540000000     0.341610000000     0.0392688  
H423     H      0.834970000000     0.460870000000     0.310320000000     0.0518537  
H424     H      0.781500000000     0.999260000000     0.323150000000     0.0384916  
H425     H      0.596070000000     0.025040000000     0.428100000000     0.0434086  
H426     H      0.646220000000     0.022570000000     0.365370000000     0.0440066  
H427     H      0.684000000000     0.468220000000     0.372980000000     0.0473679  
H428     H      0.555230000000     0.997820000000     0.427420000000     0.0493476  
H429     H      0.602630000000     0.969640000000     0.470810000000     0.0489287  
H430     H      0.591370000000     0.442300000000     0.427500000000     0.0379284  
H431     H      0.631920000000     0.492000000000     0.327350000000     0.0446365  
H432     H      0.644350000000     0.439250000000     0.370500000000     0.0408475  
H433     H      0.646530000000     0.040260000000     0.175450000000     0.0461906  
H434     H      0.605170000000     0.999480000000     0.126370000000     0.0484904  
H435     H      0.634160000000     0.436880000000     0.132350000000     0.044411   
H436     H      0.640010000000     0.027540000000     0.225790000000     0.0505002  
H437     H      0.700990000000     0.000570000000     0.193150000000     0.0483726  
H438     H      0.669480000000     0.473210000000     0.221500000000     0.0394748  
H439     H      0.573680000000     0.967960000000     0.151180000000     0.0491428  
H440     H      0.629140000000     0.435760000000     0.184190000000     0.0371865  
H441     H      0.955610000000     0.052910000000     0.099430000000     0.047394   
H442     H      0.933260000000     0.497280000000     0.058600000000     0.0571783  
H443     H      0.980950000000     0.488940000000     0.005960000000     0.0364814  
H444     H      0.993590000000     0.037930000000     0.130520000000     0.0538427  
H445     H      0.014010000000     0.074370000000     0.067070000000     0.0389334  
H446     H      0.039440000000     0.031000000000     0.076360000000     0.0409963  
H447     H      0.958090000000     0.454200000000     0.069860000000     0.0392025  
H448     H      0.015840000000     0.975990000000     0.033430000000     0.0412011  
H449     H      0.559560000000     0.142610000000     0.376060000000     0.0431193  
H450     H      0.545820000000     0.096930000000     0.433840000000     0.0399159  
H451     H      0.988780000000     0.114390000000     0.472360000000     0.049217   
H452     H      0.529200000000     0.143130000000     0.335560000000     0.0456802  
H453     H      0.513910000000     0.194220000000     0.381210000000     0.0492278  
H454     H      0.974920000000     0.166640000000     0.373270000000     0.0447937  
H455     H      0.010690000000     0.064990000000     0.429280000000     0.0455416  
H456     H      0.960330000000     0.114180000000     0.430710000000     0.049996   
H457     H      0.967670000000     0.350800000000     0.378560000000     0.0488577  
H458     H      0.498480000000     0.397540000000     0.432170000000     0.0505043  
H459     H      0.568330000000     0.380460000000     0.437470000000     0.0483306  
H460     H      0.984720000000     0.359820000000     0.329630000000     0.049971   
H461     H      0.019470000000     0.306120000000     0.364290000000     0.047745   
H462     H      0.049860000000     0.341190000000     0.344740000000     0.0389647  
H463     H      0.528130000000     0.431650000000     0.409410000000     0.0516996  
H464     H      0.575550000000     0.385190000000     0.386170000000     0.0388273  
H465     H      0.069080000000     0.396340000000     0.138930000000     0.035514   
H466     H      0.555970000000     0.342490000000     0.190860000000     0.0401326  
H467     H      0.500200000000     0.362530000000     0.227470000000     0.0474194  
H468     H      0.047400000000     0.395990000000     0.093530000000     0.0498272  
H469     H      0.016070000000     0.442320000000     0.133270000000     0.0540649  
H470     H      0.983530000000     0.407840000000     0.124450000000     0.0472012  
H471     H      0.519930000000     0.311680000000     0.180630000000     0.0453952  
H472     H      0.469180000000     0.357980000000     0.188570000000     0.0444627  
H473     H      0.490760000000     0.120940000000     0.136230000000     0.0454997  
H474     H      0.554690000000     0.143920000000     0.181590000000     0.0459094  
H475     H      0.538560000000     0.207580000000     0.190720000000     0.0489906  
H476     H      0.949620000000     0.111360000000     0.167080000000     0.0469153  
H477     H      0.941530000000     0.172400000000     0.134070000000     0.0484918  
H478     H      0.940590000000     0.174200000000     0.185420000000     0.0403485  
H479     H      0.539790000000     0.147270000000     0.231450000000     0.0488477  
H480     H      0.495100000000     0.197390000000     0.217950000000     0.0393196  
H481     H      0.936270000000     0.438030000000     0.955500000000     0.042126   
H482     H      0.897290000000     0.392900000000     0.923450000000     0.0429299  
H483     H      0.888710000000     0.326150000000     0.443180000000     0.053346   
H484     H      0.917790000000     0.457530000000     0.999570000000     0.0443441  
H485     H      0.969560000000     0.408360000000     0.008890000000     0.0462281  
H486     H      0.904650000000     0.398510000000     0.518960000000     0.039493   
H487     H      0.838150000000     0.375070000000     0.427060000000     0.0492453  
H488     H      0.863440000000     0.344350000000     0.484840000000     0.0450336  
H489     H      0.941710000000     0.059070000000     0.975140000000     0.0431746  
H490     H      0.947160000000     0.106650000000     0.533740000000     0.0498143  
H491     H      0.892190000000     0.146200000000     0.516580000000     0.048204   
H492     H      0.900650000000     0.031290000000     0.978000000000     0.0496509  
H493     H      0.897850000000     0.088670000000     0.930220000000     0.0397171  
H494     H      0.857410000000     0.083460000000     0.963790000000     0.0591328  
H495     H      0.910410000000     0.097700000000     0.570820000000     0.041119   
H496     H      0.859810000000     0.109800000000     0.525990000000     0.0491066  
H497     H      0.687110000000     0.340080000000     0.603150000000     0.0389278  
H498     H      0.732230000000     0.317220000000     0.529150000000     0.0399971  
H499     H      0.696840000000     0.287580000000     0.081620000000     0.0425046  
H500     H      0.675510000000     0.387650000000     0.599410000000     0.0484025  
H501     H      0.617510000000     0.350430000000     0.600720000000     0.0376063  
H502     H      0.632830000000     0.377450000000     0.070710000000     0.0553327  
H503     H      0.716940000000     0.337780000000     0.011220000000     0.048863   
H504     H      0.685870000000     0.283680000000     0.032090000000     0.0395302  
H505     H      0.634170000000     0.108640000000     0.619100000000     0.0426889  
H506     H      0.586150000000     0.072090000000     0.583680000000     0.039247   
H507     H      0.569460000000     0.111170000000     0.031620000000     0.0475096  
H508     H      0.681360000000     0.113300000000     0.597180000000     0.0523322  
H509     H      0.638500000000     0.169440000000     0.588870000000     0.0502996  
H510     H      0.665950000000     0.153180000000     0.051190000000     0.0436729  
H511     H      0.610220000000     0.054820000000     0.039760000000     0.0481368  
H512     H      0.616450000000     0.115480000000     0.009260000000     0.0425819  
H513     H      0.878380000000     0.517820000000     0.920530000000     0.0495394  
H514     H      0.851560000000     0.445410000000     0.887520000000     0.0480565  
H515     H      0.779700000000     0.967180000000     0.864530000000     0.0483919  
H516     H      0.891540000000     0.547720000000     0.880100000000     0.0449336  
H517     H      0.825750000000     0.563000000000     0.909110000000     0.044365   
H518     H      0.815720000000     0.059200000000     0.853460000000     0.0387464  
H519     H      0.852920000000     0.451860000000     0.836070000000     0.052139   
H520     H      0.791610000000     0.004770000000     0.831730000000     0.0378537  
H521     H      0.610060000000     0.033520000000     0.928280000000     0.0430192  
H522     H      0.657830000000     0.025290000000     0.866480000000     0.0431666  
H523     H      0.701460000000     0.466590000000     0.887130000000     0.0475647  
H524     H      0.565840000000     0.011120000000     0.929480000000     0.048764   
H525     H      0.609840000000     0.979700000000     0.973910000000     0.049704   
H526     H      0.602950000000     0.454690000000     0.939100000000     0.043752   
H527     H      0.652450000000     0.490240000000     0.836910000000     0.0424148  
H528     H      0.659490000000     0.440730000000     0.885060000000     0.0393816  
H529     H      0.647180000000     0.041010000000     0.675280000000     0.0461337  
H530     H      0.604610000000     0.997640000000     0.628390000000     0.0478919  
H531     H      0.629530000000     0.433970000000     0.620400000000     0.0450155  
H532     H      0.644730000000     0.026750000000     0.725440000000     0.0501746  
H533     H      0.704780000000     0.003900000000     0.687170000000     0.0486637  
H534     H      0.678110000000     0.460180000000     0.707290000000     0.0391561  
H535     H      0.576610000000     0.964560000000     0.655430000000     0.0484297  
H536     H      0.632300000000     0.426670000000     0.671820000000     0.0369753  
H537     H      0.951120000000     0.042710000000     0.604100000000     0.0486612  
H538     H      0.874230000000     0.424070000000     0.578580000000     0.0445202  
H539     H      0.926320000000     0.456930000000     0.547710000000     0.0429723  
H540     H      0.982750000000     0.027550000000     0.641600000000     0.0561388  
H541     H      0.014560000000     0.056770000000     0.578620000000     0.0377216  
H542     H      0.034860000000     0.013040000000     0.595690000000     0.0426595  
H543     H      0.915850000000     0.393520000000     0.584600000000     0.0410096  
H544     H      0.012480000000     0.955520000000     0.554960000000     0.041723   
H545     H      0.562090000000     0.141970000000     0.876460000000     0.0435046  
H546     H      0.545270000000     0.097580000000     0.936600000000     0.0409486  
H547     H      0.988240000000     0.119570000000     0.974370000000     0.0509117  
H548     H      0.530860000000     0.143230000000     0.836750000000     0.0463235  
H549     H      0.519710000000     0.195930000000     0.881340000000     0.048836   
H550     H      0.977640000000     0.170430000000     0.874920000000     0.0443521  
H551     H      0.005850000000     0.068110000000     0.933000000000     0.0472956  
H552     H      0.960180000000     0.120980000000     0.932380000000     0.0485339  
H553     H      0.004600000000     0.343900000000     0.864150000000     0.0505612  
H554     H      0.545960000000     0.397550000000     0.924570000000     0.0532499  
H555     H      0.607280000000     0.364900000000     0.932950000000     0.0489733  
H556     H      0.031910000000     0.350830000000     0.819840000000     0.0471696  
H557     H      0.049760000000     0.293440000000     0.863960000000     0.047246   
H558     H      0.087610000000     0.320790000000     0.843940000000     0.036499   
H559     H      0.580830000000     0.419060000000     0.892060000000     0.0463962  
H560     H      0.616950000000     0.363310000000     0.882030000000     0.0373027  
H561     H      0.058660000000     0.392100000000     0.636780000000     0.0366553  
H562     H      0.557590000000     0.336820000000     0.687940000000     0.0402047  
H563     H      0.507930000000     0.354320000000     0.733750000000     0.0471218  
H564     H      0.029080000000     0.391720000000     0.596420000000     0.04904    
H565     H      0.002690000000     0.435730000000     0.641570000000     0.0476027  
H566     H      0.971120000000     0.399060000000     0.638660000000     0.0485647  
H567     H      0.520830000000     0.305170000000     0.683240000000     0.0450858  
H568     H      0.470700000000     0.349600000000     0.700940000000     0.0446056  
H569     H      0.489240000000     0.115840000000     0.638720000000     0.0458077  
H570     H      0.553290000000     0.142330000000     0.680800000000     0.0455786  
H571     H      0.534950000000     0.205740000000     0.688880000000     0.0489143  
H572     H      0.947970000000     0.103860000000     0.671020000000     0.0474285  
H573     H      0.936390000000     0.163700000000     0.636720000000     0.0481996  
H574     H      0.936460000000     0.166910000000     0.687880000000     0.0405339  
H575     H      0.540050000000     0.146360000000     0.730970000000     0.0484436  
H576     H      0.492940000000     0.194520000000     0.717970000000     0.0392729  
H577     H      0.929760000000     0.932300000000     0.456340000000     0.043118   
H578     H      0.891980000000     0.886320000000     0.422760000000     0.0433647  
H579     H      0.899300000000     0.831270000000     0.952430000000     0.0543153  
H580     H      0.907650000000     0.954580000000     0.497410000000     0.0454948  
H581     H      0.955470000000     0.903930000000     0.514760000000     0.0443966  
H582     H      0.921260000000     0.899430000000     0.031680000000     0.0429035  
H583     H      0.848880000000     0.880450000000     0.939690000000     0.0494083  
H584     H      0.876770000000     0.848630000000     0.995750000000     0.0460649  
H585     H      0.948430000000     0.544520000000     0.429510000000     0.0546153  
H586     H      0.945410000000     0.606720000000     0.041030000000     0.0478297  
H587     H      0.900730000000     0.657800000000     0.026100000000     0.0501343  
H588     H      0.915890000000     0.508130000000     0.431780000000     0.0476334  
H589     H      0.885820000000     0.574000000000     0.439990000000     0.0440301  
H590     H      0.872070000000     0.539880000000     0.476550000000     0.0630345  
H591     H      0.905510000000     0.602450000000     0.075710000000     0.0413603  
H592     H      0.860490000000     0.628970000000     0.029810000000     0.0459432  
H593     H      0.695860000000     0.841540000000     0.112520000000     0.0393613  
H594     H      0.744070000000     0.819970000000     0.040750000000     0.0398643  
H595     H      0.689800000000     0.787550000000     0.568400000000     0.0433675  
H596     H      0.682370000000     0.889120000000     0.108480000000     0.0490398  
H597     H      0.626290000000     0.848680000000     0.108140000000     0.0374413  
H598     H      0.626230000000     0.878070000000     0.561100000000     0.0552793  
H599     H      0.705130000000     0.839070000000     0.497750000000     0.048798   
H600     H      0.675360000000     0.784490000000     0.519900000000     0.0405817  
H601     H      0.640200000000     0.609880000000     0.122750000000     0.0429937  
H602     H      0.593510000000     0.572680000000     0.084070000000     0.0390343  
H603     H      0.565550000000     0.612190000000     0.519930000000     0.0480585  
H604     H      0.687900000000     0.614930000000     0.102320000000     0.0519403  
H605     H      0.644940000000     0.670980000000     0.093620000000     0.0505314  
H606     H      0.662800000000     0.650480000000     0.539800000000     0.0437738  
H607     H      0.603850000000     0.554210000000     0.530280000000     0.0483755  
H608     H      0.613510000000     0.614630000000     0.499690000000     0.041852   
H609     H      0.862990000000     0.028780000000     0.397450000000     0.0501769  
H610     H      0.841360000000     0.950000000000     0.363600000000     0.0485757  
H611     H      0.770690000000     0.461680000000     0.351750000000     0.0485725  
H612     H      0.868450000000     0.058190000000     0.354970000000     0.0448018  
H613     H      0.804400000000     0.066340000000     0.391720000000     0.0481955  
H614     H      0.797170000000     0.556620000000     0.338490000000     0.0390259  
H615     H      0.837140000000     0.960800000000     0.313250000000     0.0513916  
H616     H      0.778550000000     0.499380000000     0.318350000000     0.0384215  
H617     H      0.594000000000     0.525920000000     0.426470000000     0.042891   
H618     H      0.643450000000     0.523010000000     0.363060000000     0.0441567  
H619     H      0.688570000000     0.969460000000     0.377490000000     0.0474476  
H620     H      0.552450000000     0.499690000000     0.425680000000     0.0493337  
H621     H      0.599400000000     0.469110000000     0.467450000000     0.0481709  
H622     H      0.596330000000     0.941640000000     0.431140000000     0.0383453  
H623     H      0.636530000000     0.990050000000     0.330520000000     0.0444093  
H624     H      0.650290000000     0.938880000000     0.375320000000     0.0409554  
H625     H      0.644260000000     0.544120000000     0.177480000000     0.0458961  
H626     H      0.604970000000     0.500160000000     0.129180000000     0.0481839  
H627     H      0.632690000000     0.935310000000     0.126860000000     0.0441798  
H628     H      0.637150000000     0.532690000000     0.228050000000     0.0506451  
H629     H      0.699380000000     0.506430000000     0.197080000000     0.0487169  
H630     H      0.670400000000     0.967500000000     0.216750000000     0.0396039  
H631     H      0.574120000000     0.468610000000     0.154850000000     0.0488484  
H632     H      0.628550000000     0.932330000000     0.178360000000     0.0369145  
H633     H      0.957290000000     0.553710000000     0.101390000000     0.048378   
H634     H      0.931680000000     0.996850000000     0.056280000000     0.0566167  
H635     H      0.977920000000     0.990640000000     0.002070000000     0.036868   
H636     H      0.994070000000     0.538460000000     0.133750000000     0.054107   
H637     H      0.016940000000     0.573250000000     0.070150000000     0.038942   
H638     H      0.041140000000     0.529590000000     0.081140000000     0.0413924  
H639     H      0.957830000000     0.954080000000     0.065800000000     0.0391586  
H640     H      0.017530000000     0.474180000000     0.038850000000     0.0413155  
H641     H      0.552340000000     0.648300000000     0.373340000000     0.043412   
H642     H      0.543410000000     0.601260000000     0.431310000000     0.0394251  
H643     H      0.989590000000     0.615260000000     0.474290000000     0.0503487  
H644     H      0.519320000000     0.648320000000     0.335140000000     0.0451628  
H645     H      0.505340000000     0.698370000000     0.382460000000     0.0494189  
H646     H      0.968230000000     0.668860000000     0.377780000000     0.0438561  
H647     H      0.010170000000     0.567100000000     0.428840000000     0.0443827  
H648     H      0.958420000000     0.615240000000     0.434800000000     0.0483878  
H649     H      0.969980000000     0.849390000000     0.380580000000     0.048365   
H650     H      0.505890000000     0.896730000000     0.431850000000     0.0501204  
H651     H      0.575100000000     0.877340000000     0.436920000000     0.048128   
H652     H      0.987200000000     0.857050000000     0.331490000000     0.0496561  
H653     H      0.020310000000     0.803080000000     0.367690000000     0.0476087  
H654     H      0.051680000000     0.836680000000     0.346610000000     0.0388108  
H655     H      0.536690000000     0.928840000000     0.407040000000     0.0513938  
H656     H      0.581990000000     0.880250000000     0.385520000000     0.03878    
H657     H      0.067640000000     0.896110000000     0.136830000000     0.0355975  
H658     H      0.557210000000     0.841860000000     0.187770000000     0.040092   
H659     H      0.501920000000     0.860200000000     0.226200000000     0.0473653  
H660     H      0.044910000000     0.895340000000     0.092040000000     0.0497473  
H661     H      0.013330000000     0.940920000000     0.132560000000     0.054721   
H662     H      0.981490000000     0.905580000000     0.124680000000     0.0473458  
H663     H      0.521600000000     0.810200000000     0.178580000000     0.0458401  
H664     H      0.470020000000     0.855470000000     0.188070000000     0.0443591  
H665     H      0.486660000000     0.623210000000     0.135270000000     0.045476   
H666     H      0.550910000000     0.646880000000     0.180800000000     0.0459964  
H667     H      0.534800000000     0.710660000000     0.188760000000     0.0487943  
H668     H      0.945950000000     0.614430000000     0.167630000000     0.0466463  
H669     H      0.938410000000     0.675320000000     0.133830000000     0.0485368  
H670     H      0.937700000000     0.677540000000     0.185130000000     0.0400941  
H671     H      0.535480000000     0.650880000000     0.230420000000     0.0492307  
H672     H      0.491140000000     0.700920000000     0.215850000000     0.0391125  
H673     H      0.934270000000     0.936320000000     0.951060000000     0.0426165  
H674     H      0.895320000000     0.890900000000     0.919280000000     0.0432664  
H675     H      0.889890000000     0.828330000000     0.458610000000     0.0540357  
H676     H      0.915160000000     0.957090000000     0.994210000000     0.0454657  
H677     H      0.965970000000     0.907560000000     0.005940000000     0.0460108  
H678     H      0.908500000000     0.897850000000     0.536520000000     0.0417371  
H679     H      0.843610000000     0.878580000000     0.439340000000     0.0497404  
H680     H      0.865570000000     0.848360000000     0.499740000000     0.0461282  
H681     H      0.944570000000     0.559000000000     0.982040000000     0.0431339  
H682     H      0.986610000000     0.549010000000     0.497500000000     0.0376109  
H683     H      0.942530000000     0.580510000000     0.542440000000     0.0459536  
H684     H      0.903830000000     0.530810000000     0.985830000000     0.0490784  
H685     H      0.900740000000     0.586520000000     0.935840000000     0.0387601  
H686     H      0.860190000000     0.582050000000     0.969320000000     0.0598202  
H687     H      0.972910000000     0.514890000000     0.534040000000     0.039762   
H688     H      0.909700000000     0.544110000000     0.544340000000     0.0555145  
H689     H      0.692300000000     0.841860000000     0.607010000000     0.0393165  
H690     H      0.737620000000     0.820490000000     0.532600000000     0.0406297  
H691     H      0.694730000000     0.787210000000     0.074070000000     0.0425977  
H692     H      0.679100000000     0.889130000000     0.603570000000     0.0484003  
H693     H      0.622640000000     0.849710000000     0.605180000000     0.037397   
H694     H      0.631010000000     0.877460000000     0.065090000000     0.055413   
H695     H      0.713580000000     0.838090000000     0.003850000000     0.0487309  
H696     H      0.682660000000     0.783910000000     0.024790000000     0.0395876  
H697     H      0.636540000000     0.607360000000     0.613610000000     0.0436426  
H698     H      0.587220000000     0.573830000000     0.574790000000     0.0430429  
H699     H      0.569070000000     0.610370000000     0.030940000000     0.0470963  
H700     H      0.684430000000     0.610260000000     0.592960000000     0.0527522  
H701     H      0.644340000000     0.668340000000     0.584670000000     0.0505976  
H702     H      0.664910000000     0.653890000000     0.048990000000     0.0436909  
H703     H      0.611520000000     0.554800000000     0.039200000000     0.0482997  
H704     H      0.615790000000     0.615200000000     0.008120000000     0.0420528  
H705     H      0.872720000000     0.024110000000     0.910240000000     0.0492136  
H706     H      0.845380000000     0.950150000000     0.874130000000     0.0486329  
H707     H      0.786900000000     0.463170000000     0.871040000000     0.0480106  
H708     H      0.881950000000     0.054760000000     0.869380000000     0.044157   
H709     H      0.817650000000     0.066800000000     0.904150000000     0.0445164  
H710     H      0.826840000000     0.553440000000     0.858710000000     0.0390879  
H711     H      0.843570000000     0.961080000000     0.823510000000     0.0518578  
H712     H      0.802310000000     0.498600000000     0.837660000000     0.0381917  
H713     H      0.620070000000     0.536180000000     0.930200000000     0.0424258  
H714     H      0.667000000000     0.523160000000     0.869360000000     0.043134   
H715     H      0.696660000000     0.970550000000     0.881790000000     0.047172   
H716     H      0.573760000000     0.518050000000     0.931380000000     0.047824   
H717     H      0.613350000000     0.483050000000     0.976930000000     0.0505148  
H718     H      0.601060000000     0.950970000000     0.935710000000     0.0414153  
H719     H      0.645670000000     0.992120000000     0.833220000000     0.0430192  
H720     H      0.656640000000     0.942030000000     0.880060000000     0.040196   
H721     H      0.647400000000     0.535010000000     0.676250000000     0.0468439  
H722     H      0.600080000000     0.495820000000     0.628970000000     0.0492137  
H723     H      0.635050000000     0.934820000000     0.626960000000     0.0441125  
H724     H      0.647290000000     0.517530000000     0.725400000000     0.050153   
H725     H      0.704630000000     0.495950000000     0.682920000000     0.0485258  
H726     H      0.678180000000     0.969030000000     0.713060000000     0.0395412  
H727     H      0.573420000000     0.461490000000     0.655640000000     0.049221   
H728     H      0.634970000000     0.931820000000     0.678450000000     0.0369852  
H729     H      0.852930000000     0.460780000000     0.644420000000     0.0478019  
H730     H      0.928600000000     0.985200000000     0.562060000000     0.0513589  
H731     H      0.981410000000     0.969880000000     0.516530000000     0.0355924  
H732     H      0.881780000000     0.447080000000     0.684580000000     0.0426972  
H733     H      0.897040000000     0.509520000000     0.649760000000     0.0485589  
H734     H      0.937290000000     0.477110000000     0.654290000000     0.0574784  
H735     H      0.948430000000     0.941490000000     0.579270000000     0.0390104  
H736     H      0.958040000000     0.443480000000     0.585500000000     0.039592   
H737     H      0.562550000000     0.643490000000     0.876890000000     0.043425   
H738     H      0.547560000000     0.600550000000     0.938580000000     0.0411855  
H739     H      0.987780000000     0.618090000000     0.975220000000     0.0511804  
H740     H      0.532290000000     0.641110000000     0.836770000000     0.0464651  
H741     H      0.516370000000     0.694780000000     0.879600000000     0.0487585  
H742     H      0.977240000000     0.665720000000     0.874490000000     0.0440341  
H743     H      0.011540000000     0.566790000000     0.936470000000     0.0475883  
H744     H      0.961920000000     0.616560000000     0.932000000000     0.0474864  
H745     H      0.991950000000     0.846630000000     0.868330000000     0.0502407  
H746     H      0.533000000000     0.898260000000     0.923640000000     0.0525901  
H747     H      0.597150000000     0.868990000000     0.929240000000     0.0485452  
H748     H      0.014300000000     0.853390000000     0.821240000000     0.0488225  
H749     H      0.038760000000     0.797050000000     0.861840000000     0.0473552  
H750     H      0.074150000000     0.826630000000     0.840540000000     0.0371769  
H751     H      0.566600000000     0.922970000000     0.892540000000     0.0488756  
H752     H      0.604830000000     0.869020000000     0.877960000000     0.0376588  
H753     H      0.068370000000     0.890000000000     0.643550000000     0.0353117  
H754     H      0.558570000000     0.835590000000     0.693590000000     0.0401733  
H755     H      0.504990000000     0.856290000000     0.732960000000     0.0474278  
H756     H      0.045600000000     0.889820000000     0.598760000000     0.0484887  
H757     H      0.014590000000     0.935650000000     0.639270000000     0.0534245  
H758     H      0.982210000000     0.900560000000     0.632070000000     0.0481123  
H759     H      0.521340000000     0.805560000000     0.684630000000     0.0441829  
H760     H      0.471800000000     0.852360000000     0.695840000000     0.0443019  
H761     H      0.496640000000     0.612450000000     0.640370000000     0.0492595  
H762     H      0.561770000000     0.636420000000     0.680850000000     0.0454734  
H763     H      0.546110000000     0.700330000000     0.688770000000     0.0493076  
H764     H      0.955710000000     0.601560000000     0.674520000000     0.0502258  
H765     H      0.945210000000     0.661610000000     0.640860000000     0.0512014  
H766     H      0.946810000000     0.664780000000     0.691910000000     0.0412098  
H767     H      0.550050000000     0.641060000000     0.731240000000     0.0487065  
H768     H      0.504430000000     0.690760000000     0.719120000000     0.0396353  
N1       N      0.420900000000     0.360500000000     0.476830000000    -0.162228   
N2       N      0.367920000000     0.415960000000     0.453560000000    -0.162414   
N3       N      0.393430000000     0.106850000000     0.474780000000    -0.0976241  
N4       N      0.406170000000     0.063950000000     0.024440000000    -0.0928889  
N5       N      0.135170000000     0.320340000000     0.551790000000    -0.162765   
N6       N      0.198040000000     0.362710000000     0.547730000000    -0.163066   
N7       N      0.106760000000     0.145110000000     0.059600000000    -0.162515   
N8       N      0.151760000000     0.080270000000     0.071670000000    -0.161748   
N9       N      0.284750000000     0.510100000000     0.377340000000    -0.163179   
N10      N      0.357450000000     0.501300000000     0.343740000000    -0.16328    
N11      N      0.144500000000     0.465870000000     0.422790000000    -0.162917   
N12      N      0.090390000000     0.498950000000     0.373900000000    -0.160777   
N13      N      0.169830000000     0.969490000000     0.155030000000    -0.164019   
N14      N      0.103510000000     0.002990000000     0.186660000000    -0.163279   
N15      N      0.499700000000     0.031560000000     0.033730000000    -0.103071   
N16      N      0.471430000000     0.996890000000     0.099370000000    -0.0934169  
N17      N      0.497290000000     0.157590000000     0.429280000000    -0.162032   
N18      N      0.020370000000     0.102020000000     0.379570000000    -0.163388   
N19      N      0.542110000000     0.340650000000     0.405360000000    -0.164635   
N20      N      0.500120000000     0.398280000000     0.370820000000    -0.163006   
N21      N      0.501840000000     0.405050000000     0.182620000000    -0.159661   
N22      N      0.035070000000     0.350940000000     0.134240000000    -0.161707   
N23      N      0.992060000000     0.191640000000     0.157570000000    -0.162399   
N24      N      0.000640000000     0.122980000000     0.195500000000    -0.163475   
N25      N      0.437340000000     0.365910000000     0.987750000000    -0.160557   
N26      N      0.381560000000     0.421660000000     0.972820000000    -0.162967   
N27      N      0.394820000000     0.123540000000     0.975930000000    -0.0988683  
N28      N      0.413530000000     0.039700000000     0.506140000000    -0.0932027  
N29      N      0.149930000000     0.321700000000     0.063170000000    -0.162355   
N30      N      0.210560000000     0.365850000000     0.062890000000    -0.162473   
N31      N      0.096260000000     0.142470000000     0.555850000000    -0.162432   
N32      N      0.142360000000     0.078390000000     0.567860000000    -0.16181    
N33      N      0.306240000000     0.510720000000     0.895580000000    -0.163573   
N34      N      0.379260000000     0.493380000000     0.865770000000    -0.162461   
N35      N      0.160070000000     0.470730000000     0.934380000000    -0.1625     
N36      N      0.110990000000     0.505340000000     0.881630000000    -0.161709   
N37      N      0.169650000000     0.969750000000     0.651570000000    -0.163939   
N38      N      0.104390000000     0.000930000000     0.687940000000    -0.163304   
N39      N      0.500550000000     0.014080000000     0.545190000000    -0.102537   
N40      N      0.465950000000     0.987030000000     0.611750000000    -0.0935863  
N41      N      0.501390000000     0.161240000000     0.930220000000    -0.161299   
N42      N      0.019100000000     0.102620000000     0.881960000000    -0.162288   
N43      N      0.573720000000     0.328530000000     0.903900000000    -0.164538   
N44      N      0.540340000000     0.388260000000     0.865150000000    -0.162465   
N45      N      0.500990000000     0.397830000000     0.690550000000    -0.159938   
N46      N      0.025970000000     0.345140000000     0.637160000000    -0.162019   
N47      N      0.986370000000     0.185960000000     0.658280000000    -0.162675   
N48      N      0.998950000000     0.118440000000     0.697780000000    -0.162919   
N49      N      0.424220000000     0.863520000000     0.490070000000    -0.161595   
N50      N      0.372030000000     0.920190000000     0.467800000000    -0.162082   
N51      N      0.409300000000     0.577030000000     0.493890000000    -0.096393   
N52      N      0.409300000000     0.565190000000     0.030790000000    -0.0933346  
N53      N      0.141180000000     0.820960000000     0.555840000000    -0.162341   
N54      N      0.202290000000     0.865390000000     0.551700000000    -0.162586   
N55      N      0.106460000000     0.645220000000     0.058790000000    -0.162327   
N56      N      0.152700000000     0.581120000000     0.071790000000    -0.161397   
N57      N      0.289630000000     0.009790000000     0.380130000000    -0.163599   
N58      N      0.361490000000     0.999700000000     0.345050000000    -0.163077   
N59      N      0.148240000000     0.966150000000     0.425190000000    -0.162576   
N60      N      0.094010000000     0.997430000000     0.375120000000    -0.160283   
N61      N      0.170070000000     0.472720000000     0.160010000000    -0.16394    
N62      N      0.102560000000     0.505710000000     0.189340000000    -0.163095   
N63      N      0.502850000000     0.529520000000     0.037550000000    -0.102787   
N64      N      0.471560000000     0.497070000000     0.103060000000    -0.0923914  
N65      N      0.493060000000     0.660530000000     0.430830000000    -0.161331   
N66      N      0.015760000000     0.605200000000     0.379490000000    -0.163284   
N67      N      0.546900000000     0.837540000000     0.406620000000    -0.164938   
N68      N      0.506460000000     0.895240000000     0.370620000000    -0.162969   
N69      N      0.501740000000     0.903140000000     0.181730000000    -0.160182   
N70      N      0.034550000000     0.849960000000     0.132930000000    -0.162121   
N71      N      0.989330000000     0.694170000000     0.156900000000    -0.162458   
N72      N      0.997330000000     0.625840000000     0.195400000000    -0.163439   
N73      N      0.433370000000     0.865290000000     0.984460000000    -0.160596   
N74      N      0.378430000000     0.921350000000     0.967310000000    -0.16259    
N75      N      0.397240000000     0.622800000000     0.979850000000    -0.0983034  
N76      N      0.447390000000     0.512070000000     0.480960000000    -0.10108    
N77      N      0.147870000000     0.821690000000     0.057710000000    -0.162513   
N78      N      0.208610000000     0.865930000000     0.055880000000    -0.162531   
N79      N      0.103570000000     0.643530000000     0.551190000000    -0.162592   
N80      N      0.146440000000     0.577740000000     0.563350000000    -0.16179    
N81      N      0.299500000000     0.014570000000     0.889370000000    -0.163589   
N82      N      0.371240000000     0.000050000000     0.855560000000    -0.163344   
N83      N      0.155730000000     0.972740000000     0.929540000000    -0.162168   
N84      N      0.103190000000     0.004210000000     0.877820000000    -0.160946   
N85      N      0.168390000000     0.465520000000     0.647960000000    -0.163885   
N86      N      0.105510000000     0.494890000000     0.689890000000    -0.162653   
N87      N      0.416190000000     0.483340000000     0.599050000000    -0.102973   
N88      N      0.396620000000     0.418500000000     0.634070000000    -0.100746   
N89      N      0.499490000000     0.660020000000     0.929010000000    -0.16194    
N90      N      0.023090000000     0.600690000000     0.884500000000    -0.162753   
N91      N      0.564150000000     0.831830000000     0.900520000000    -0.16467    
N92      N      0.528100000000     0.891440000000     0.863600000000    -0.162266   
N93      N      0.504890000000     0.899090000000     0.688370000000    -0.159501   
N94      N      0.034310000000     0.844520000000     0.639460000000    -0.162258   
N95      N      0.996610000000     0.682430000000     0.660990000000    -0.161985   
N96      N      0.007650000000     0.614570000000     0.700570000000    -0.162257   
N97      N      0.920500000000     0.360690000000     0.476980000000    -0.162243   
N98      N      0.868080000000     0.416540000000     0.453390000000    -0.162487   
N99      N      0.894600000000     0.106270000000     0.475270000000    -0.0978664  
N100     N      0.905830000000     0.064230000000     0.024900000000    -0.0928935  
N101     N      0.636000000000     0.321210000000     0.551000000000    -0.162818   
N102     N      0.698780000000     0.363680000000     0.546970000000    -0.163104   
N103     N      0.606860000000     0.145000000000     0.060070000000    -0.162497   
N104     N      0.651850000000     0.080150000000     0.072160000000    -0.161734   
N105     N      0.785400000000     0.511120000000     0.376590000000    -0.163189   
N106     N      0.858070000000     0.502080000000     0.342980000000    -0.163292   
N107     N      0.644500000000     0.466800000000     0.422510000000    -0.163059   
N108     N      0.589920000000     0.499600000000     0.373980000000    -0.160765   
N109     N      0.669410000000     0.969440000000     0.155770000000    -0.164008   
N110     N      0.603020000000     0.002900000000     0.187300000000    -0.163265   
N111     N      0.999510000000     0.031690000000     0.033450000000    -0.102915   
N112     N      0.971490000000     0.997120000000     0.099260000000    -0.093248   
N113     N      0.997320000000     0.157810000000     0.428660000000    -0.161933   
N114     N      0.519410000000     0.101500000000     0.380250000000    -0.163497   
N115     N      0.041010000000     0.340830000000     0.405590000000    -0.164674   
N116     N      0.999090000000     0.398500000000     0.371140000000    -0.162886   
N117     N      0.001680000000     0.405330000000     0.181820000000    -0.159801   
N118     N      0.535080000000     0.350680000000     0.135000000000    -0.161722   
N119     N      0.492450000000     0.190860000000     0.157990000000    -0.162811   
N120     N      0.500810000000     0.122220000000     0.195920000000    -0.163341   
N121     N      0.937050000000     0.365830000000     0.987860000000    -0.160499   
N122     N      0.881020000000     0.421510000000     0.973460000000    -0.162971   
N123     N      0.894530000000     0.123730000000     0.976250000000    -0.0988847  
N124     N      0.920380000000     0.057260000000     0.530430000000    -0.0965262  
N125     N      0.649820000000     0.321680000000     0.064020000000    -0.162405   
N126     N      0.710340000000     0.365930000000     0.063660000000    -0.162452   
N127     N      0.598020000000     0.143330000000     0.555790000000    -0.162432   
N128     N      0.644290000000     0.079470000000     0.568310000000    -0.161853   
N129     N      0.806220000000     0.510710000000     0.896310000000    -0.163455   
N130     N      0.879200000000     0.492910000000     0.866690000000    -0.162479   
N131     N      0.659860000000     0.471780000000     0.934710000000    -0.16247    
N132     N      0.610960000000     0.505900000000     0.881430000000    -0.161685   
N133     N      0.672140000000     0.970900000000     0.652660000000    -0.163809   
N134     N      0.606470000000     0.001280000000     0.689090000000    -0.163282   
N135     N      0.001810000000     0.012040000000     0.547170000000    -0.102149   
N136     N      0.961380000000     0.986090000000     0.610800000000    -0.0926226  
N137     N      0.001020000000     0.161230000000     0.929750000000    -0.161233   
N138     N      0.519920000000     0.102770000000     0.882440000000    -0.162435   
N139     N      0.074110000000     0.328110000000     0.903260000000    -0.164352   
N140     N      0.041660000000     0.387670000000     0.864100000000    -0.162164   
N141     N      0.999370000000     0.397220000000     0.690950000000    -0.159857   
N142     N      0.527500000000     0.345660000000     0.636930000000    -0.162059   
N143     N      0.488380000000     0.186470000000     0.658530000000    -0.162707   
N144     N      0.500880000000     0.118900000000     0.697850000000    -0.163207   
N145     N      0.923530000000     0.861960000000     0.491770000000    -0.161613   
N146     N      0.872270000000     0.919070000000     0.468740000000    -0.162411   
N147     N      0.910680000000     0.577100000000     0.493330000000    -0.0963028  
N148     N      0.908280000000     0.565570000000     0.031310000000    -0.0932836  
N149     N      0.641520000000     0.821830000000     0.554760000000    -0.162373   
N150     N      0.702890000000     0.866010000000     0.550910000000    -0.162569   
N151     N      0.605950000000     0.645310000000     0.058470000000    -0.162342   
N152     N      0.652090000000     0.581230000000     0.071880000000    -0.161424   
N153     N      0.790420000000     0.011720000000     0.380760000000    -0.16318    
N154     N      0.861960000000     0.001520000000     0.345110000000    -0.163454   
N155     N      0.648480000000     0.967830000000     0.426530000000    -0.162509   
N156     N      0.593560000000     0.997560000000     0.376210000000    -0.160187   
N157     N      0.669380000000     0.473060000000     0.160550000000    -0.164011   
N158     N      0.601720000000     0.505860000000     0.189800000000    -0.162971   
N159     N      0.002490000000     0.530190000000     0.037060000000    -0.103055   
N160     N      0.971750000000     0.497610000000     0.102770000000    -0.0922764  
N161     N      0.994620000000     0.659680000000     0.431160000000    -0.161452   
N162     N      0.513990000000     0.605680000000     0.379510000000    -0.163272   
N163     N      0.043620000000     0.838280000000     0.407400000000    -0.164841   
N164     N      0.002800000000     0.896090000000     0.372020000000    -0.163344   
N165     N      0.001290000000     0.903430000000     0.181430000000    -0.160259   
N166     N      0.534360000000     0.849850000000     0.132740000000    -0.16217    
N167     N      0.488960000000     0.693480000000     0.156020000000    -0.162735   
N168     N      0.496890000000     0.625340000000     0.194830000000    -0.16342    
N169     N      0.933490000000     0.864870000000     0.985130000000    -0.160528   
N170     N      0.878420000000     0.920880000000     0.968190000000    -0.162547   
N171     N      0.896720000000     0.623260000000     0.980350000000    -0.098359   
N172     N      0.948090000000     0.511760000000     0.480670000000    -0.101143   
N173     N      0.647420000000     0.821640000000     0.057870000000    -0.162448   
N174     N      0.708290000000     0.865640000000     0.056700000000    -0.1626     
N175     N      0.603480000000     0.644440000000     0.550130000000    -0.162616   
N176     N      0.646440000000     0.578720000000     0.562430000000    -0.161778   
N177     N      0.799210000000     0.014370000000     0.890430000000    -0.163627   
N178     N      0.870770000000     0.999700000000     0.856340000000    -0.162736   
N179     N      0.655950000000     0.972310000000     0.930320000000    -0.162211   
N180     N      0.603530000000     0.003880000000     0.878540000000    -0.160912   
N181     N      0.669210000000     0.466610000000     0.647490000000    -0.163819   
N182     N      0.606180000000     0.495610000000     0.689460000000    -0.162603   
N183     N      0.916000000000     0.483980000000     0.599110000000    -0.103003   
N184     N      0.895110000000     0.419530000000     0.634090000000    -0.100745   
N185     N      0.999780000000     0.659440000000     0.929940000000    -0.161515   
N186     N      0.523540000000     0.601430000000     0.883770000000    -0.162882   
N187     N      0.063890000000     0.831650000000     0.900740000000    -0.164647   
N188     N      0.028240000000     0.891110000000     0.863430000000    -0.162077   
N189     N      0.002840000000     0.898420000000     0.688470000000    -0.159396   
N190     N      0.535090000000     0.845000000000     0.639030000000    -0.16225    
N191     N      0.497640000000     0.682790000000     0.660020000000    -0.162267   
N192     N      0.508830000000     0.614890000000     0.699420000000    -0.162233   
O1       O      0.038640000000     0.004060000000     0.195870000000    -0.374954   
O2       O      0.487140000000     0.459540000000     0.363220000000    -0.374215   
O3       O      0.070480000000     0.016680000000     0.316250000000    -0.36153    
O4       O      0.478650000000     0.426300000000     0.241140000000    -0.363076   
O5       O      0.026620000000     0.502030000000     0.364230000000    -0.34895    
O6       O      0.994140000000     0.466400000000     0.192310000000    -0.356182   
O7       O      0.475700000000     0.424080000000     0.315350000000    -0.377607   
O8       O      0.073220000000     0.025690000000     0.240930000000    -0.370935   
O9       O      0.432680000000     0.005080000000     0.201640000000    -0.347046   
O10      O      0.492750000000     0.048650000000     0.367350000000    -0.367436   
O11      O      0.025110000000     0.083840000000     0.242970000000    -0.36087    
O12      O      0.404530000000     0.469610000000     0.309210000000    -0.361132   
O13      O      0.419850000000     0.516180000000     0.342940000000    -0.388495   
O14      O      0.983330000000     0.064000000000     0.203570000000    -0.38378    
O15      O      0.411380000000     0.463780000000     0.242070000000    -0.331943   
O16      O      0.028170000000     0.077910000000     0.319700000000    -0.357599   
O17      O      0.974720000000     0.516580000000     0.278180000000    -0.597264   
O18      O      0.989700000000     0.199900000000     0.092120000000    -0.373962   
O19      O      0.475520000000     0.341200000000     0.507230000000    -0.370455   
O20      O      0.045070000000     0.292200000000     0.113590000000    -0.363209   
O21      O      0.431640000000     0.247550000000     0.484810000000    -0.340795   
O22      O      0.535120000000     0.338340000000     0.071470000000    -0.360001   
O23      O      0.449340000000     0.216360000000     0.037160000000    -0.35149    
O24      O      0.448220000000     0.303190000000     0.470230000000    -0.358888   
O25      O      0.034830000000     0.226480000000     0.121990000000    -0.363226   
O26      O      0.991850000000     0.175330000000     0.491330000000    -0.361789   
O27      O      0.072340000000     0.325590000000     0.538600000000    -0.352768   
O28      O      0.090120000000     0.204210000000     0.074150000000    -0.360332   
O29      O      0.513170000000     0.290840000000     0.433330000000    -0.368801   
O30      O      0.536360000000     0.331070000000     0.470740000000    -0.366432   
O31      O      0.049440000000     0.172770000000     0.043410000000    -0.365869   
O32      O      0.496810000000     0.217560000000     0.443750000000    -0.373908   
O33      O      0.111570000000     0.273610000000     0.065830000000    -0.364922   
O34      O      0.525020000000     0.253390000000     0.519440000000    -0.598152   
O35      O      0.344880000000     0.005920000000     0.050730000000    -0.340098   
O36      O      0.190950000000     0.424400000000     0.544820000000    -0.366819   
O37      O      0.221890000000     0.995830000000     0.124280000000    -0.361218   
O38      O      0.302710000000     0.421970000000     0.461530000000    -0.364117   
O39      O      0.181400000000     0.470930000000     0.095140000000    -0.355345   
O40      O      0.350540000000     0.471690000000     0.998990000000    -0.363217   
O41      O      0.231070000000     0.397860000000     0.501790000000    -0.370293   
O42      O      0.306440000000     0.007310000000     0.104510000000    -0.347588   
O43      O      0.291840000000     0.020260000000     0.444220000000    -0.38299    
O44      O      0.163920000000     0.025790000000     0.539530000000    -0.375888   
O45      O      0.272450000000     0.067400000000     0.071270000000    -0.33811    
O46      O      0.205870000000     0.451580000000     0.440490000000    -0.362331   
O47      O      0.163370000000     0.476180000000     0.482770000000    -0.384617   
O48      O      0.303930000000     0.061830000000     0.013720000000    -0.356143   
O49      O      0.264640000000     0.466920000000     0.422690000000    -0.355344   
O50      O      0.210490000000     0.052500000000     0.083260000000    -0.355196   
O51      O      0.255160000000     0.978460000000     0.529870000000    -0.597397   
O52      O      0.040040000000     0.000480000000     0.700200000000    -0.376868   
O53      O      0.521250000000     0.448600000000     0.865300000000    -0.380588   
O54      O      0.076910000000     0.019090000000     0.819070000000    -0.358145   
O55      O      0.487330000000     0.417410000000     0.752050000000    -0.3621     
O56      O      0.048140000000     0.498010000000     0.874360000000    -0.351652   
O57      O      0.994520000000     0.457880000000     0.703870000000    -0.367046   
O58      O      0.501100000000     0.414500000000     0.819840000000    -0.379722   
O59      O      0.075840000000     0.024070000000     0.742990000000    -0.370238   
O60      O      0.436720000000     0.001970000000     0.708220000000    -0.345713   
O61      O      0.498440000000     0.047060000000     0.870950000000    -0.362029   
O62      O      0.026270000000     0.081310000000     0.745430000000    -0.359232   
O63      O      0.422170000000     0.460460000000     0.827430000000    -0.356293   
O64      O      0.442580000000     0.504820000000     0.861240000000    -0.38571    
O65      O      0.983630000000     0.059160000000     0.708570000000    -0.383201   
O66      O      0.419130000000     0.460640000000     0.766770000000    -0.327969   
O67      O      0.029400000000     0.076970000000     0.822860000000    -0.355202   
O68      O      0.988780000000     0.506200000000     0.791760000000    -0.597099   
O69      O      0.980500000000     0.194710000000     0.593150000000    -0.37587    
O70      O      0.495080000000     0.345430000000     0.010770000000    -0.373872   
O71      O      0.036940000000     0.287390000000     0.614040000000    -0.363589   
O72      O      0.444650000000     0.255720000000     0.985890000000    -0.335248   
O73      O      0.519630000000     0.334250000000     0.574070000000    -0.367327   
O74      O      0.438130000000     0.209580000000     0.537010000000    -0.354813   
O75      O      0.463810000000     0.309160000000     0.975270000000    -0.360412   
O76      O      0.026250000000     0.222380000000     0.620980000000    -0.36551    
O77      O      0.000380000000     0.179400000000     0.992050000000    -0.360742   
O78      O      0.090440000000     0.327340000000     0.040510000000    -0.352428   
O79      O      0.079240000000     0.201370000000     0.570790000000    -0.361425   
O80      O      0.533230000000     0.288050000000     0.933820000000    -0.371857   
O81      O      0.562260000000     0.326100000000     0.969310000000    -0.372543   
O82      O      0.037610000000     0.168970000000     0.542450000000    -0.363484   
O83      O      0.505640000000     0.221160000000     0.944180000000    -0.366152   
O84      O      0.098180000000     0.271240000000     0.556740000000    -0.368332   
O85      O      0.539630000000     0.255230000000     0.019850000000    -0.589382   
O86      O      0.337740000000     0.012620000000     0.539240000000    -0.337095   
O87      O      0.202220000000     0.427530000000     0.059690000000    -0.36601    
O88      O      0.219040000000     0.997530000000     0.617650000000    -0.361994   
O89      O      0.316300000000     0.426980000000     0.979820000000    -0.362267   
O90      O      0.173910000000     0.467400000000     0.582320000000    -0.353439   
O91      O      0.337790000000     0.467070000000     0.478290000000    -0.364776   
O92      O      0.244280000000     0.401580000000     0.018100000000    -0.370796   
O93      O      0.301020000000     0.014620000000     0.594130000000    -0.348099   
O94      O      0.301230000000     0.021680000000     0.954190000000    -0.382791   
O95      O      0.172390000000     0.027220000000     0.043920000000    -0.375738   
O96      O      0.262040000000     0.070820000000     0.558110000000    -0.339393   
O97      O      0.220250000000     0.454750000000     0.955230000000    -0.360764   
O98      O      0.176680000000     0.481030000000     0.995120000000    -0.38523    
O99      O      0.291840000000     0.063650000000     0.499960000000    -0.356404   
O100     O      0.279990000000     0.470230000000     0.940220000000    -0.35568    
O101     O      0.202630000000     0.053130000000     0.576620000000    -0.355044   
O102     O      0.262010000000     0.977110000000     0.036940000000    -0.595303   
O103     O      0.037600000000     0.506180000000     0.196890000000    -0.375036   
O104     O      0.492380000000     0.956290000000     0.363570000000    -0.375274   
O105     O      0.066650000000     0.519040000000     0.315510000000    -0.363418   
O106     O      0.480830000000     0.923580000000     0.241270000000    -0.364507   
O107     O      0.030400000000     0.999150000000     0.364740000000    -0.34903    
O108     O      0.994360000000     0.964320000000     0.192490000000    -0.358909   
O109     O      0.480220000000     0.920830000000     0.315920000000    -0.378736   
O110     O      0.070600000000     0.529390000000     0.242210000000    -0.369237   
O111     O      0.431460000000     0.507130000000     0.198920000000    -0.345979   
O112     O      0.489240000000     0.551800000000     0.366710000000    -0.367352   
O113     O      0.021680000000     0.587000000000     0.243040000000    -0.362185   
O114     O      0.407970000000     0.966980000000     0.310710000000    -0.360532   
O115     O      0.424090000000     0.013740000000     0.343720000000    -0.388804   
O116     O      0.980720000000     0.566580000000     0.203170000000    -0.383409   
O117     O      0.413630000000     0.961090000000     0.244570000000    -0.331213   
O118     O      0.023360000000     0.581600000000     0.319320000000    -0.357838   
O119     O      0.978150000000     0.013690000000     0.278930000000    -0.601132   
O120     O      0.987650000000     0.700540000000     0.091340000000    -0.374477   
O121     O      0.481250000000     0.842960000000     0.514900000000    -0.37191    
O122     O      0.044520000000     0.791450000000     0.111980000000    -0.363146   
O123     O      0.433040000000     0.751200000000     0.493070000000    -0.341173   
O124     O      0.532580000000     0.837790000000     0.069260000000    -0.361246   
O125     O      0.447500000000     0.715090000000     0.036540000000    -0.350263   
O126     O      0.450710000000     0.806580000000     0.478850000000    -0.360192   
O127     O      0.032920000000     0.727500000000     0.120560000000    -0.362651   
O128     O      0.994080000000     0.675780000000     0.494300000000    -0.357761   
O129     O      0.079010000000     0.825290000000     0.540560000000    -0.351872   
O130     O      0.089140000000     0.704290000000     0.072720000000    -0.361537   
O131     O      0.515080000000     0.790370000000     0.436520000000    -0.37022    
O132     O      0.541910000000     0.829730000000     0.472220000000    -0.370641   
O133     O      0.048670000000     0.672130000000     0.042580000000    -0.365264   
O134     O      0.493960000000     0.720200000000     0.446630000000    -0.369336   
O135     O      0.109850000000     0.773330000000     0.061430000000    -0.365253   
O136     O      0.529310000000     0.753770000000     0.521220000000    -0.59408    
O137     O      0.346530000000     0.506610000000     0.058250000000    -0.341364   
O138     O      0.193440000000     0.927040000000     0.548520000000    -0.365302   
O139     O      0.222270000000     0.498820000000     0.129270000000    -0.361497   
O140     O      0.306750000000     0.926420000000     0.470430000000    -0.364879   
O141     O      0.179660000000     0.970100000000     0.089810000000    -0.354081   
O142     O      0.347550000000     0.971900000000     0.992510000000    -0.36274    
O143     O      0.234720000000     0.901240000000     0.506020000000    -0.369834   
O144     O      0.306730000000     0.509820000000     0.110930000000    -0.3474     
O145     O      0.288560000000     0.517720000000     0.441820000000    -0.383103   
O146     O      0.165530000000     0.524410000000     0.535330000000    -0.37824    
O147     O      0.273530000000     0.568920000000     0.075010000000    -0.338026   
O148     O      0.209560000000     0.954070000000     0.444150000000    -0.36243    
O149     O      0.165440000000     0.977480000000     0.485590000000    -0.383967   
O150     O      0.306800000000     0.561580000000     0.018700000000    -0.356074   
O151     O      0.268540000000     0.968480000000     0.426920000000    -0.356805   
O152     O      0.211270000000     0.554080000000     0.085580000000    -0.354848   
O153     O      0.253990000000     0.473250000000     0.526000000000    -0.597374   
O154     O      0.041400000000     0.496330000000     0.704530000000    -0.374585   
O155     O      0.510880000000     0.952190000000     0.861920000000    -0.37771    
O156     O      0.083790000000     0.517240000000     0.822940000000    -0.359272   
O157     O      0.484420000000     0.920300000000     0.747750000000    -0.35728    
O158     O      0.039970000000     0.999600000000     0.869350000000    -0.347915   
O159     O      0.996470000000     0.959460000000     0.699260000000    -0.35813    
O160     O      0.491550000000     0.918000000000     0.816170000000    -0.37746    
O161     O      0.079850000000     0.518280000000     0.746020000000    -0.371943   
O162     O      0.434500000000     0.506550000000     0.724650000000    -0.354035   
O163     O      0.504500000000     0.544430000000     0.874430000000    -0.363237   
O164     O      0.033530000000     0.577150000000     0.748880000000    -0.357582   
O165     O      0.414650000000     0.966790000000     0.818130000000    -0.36243    
O166     O      0.434780000000     0.010460000000     0.853110000000    -0.386236   
O167     O      0.989710000000     0.556150000000     0.712510000000    -0.377266   
O168     O      0.417520000000     0.959530000000     0.752840000000    -0.330336   
O169     O      0.034160000000     0.573910000000     0.826130000000    -0.356425   
O170     O      0.982520000000     0.010300000000     0.785300000000    -0.593182   
O171     O      0.988200000000     0.692770000000     0.596430000000    -0.372655   
O172     O      0.490970000000     0.844980000000     0.008010000000    -0.372806   
O173     O      0.042740000000     0.786520000000     0.616480000000    -0.363653   
O174     O      0.441160000000     0.754210000000     0.985280000000    -0.336544   
O175     O      0.527640000000     0.834590000000     0.576040000000    -0.363849   
O176     O      0.442140000000     0.711450000000     0.543360000000    -0.352231   
O177     O      0.459780000000     0.808280000000     0.972920000000    -0.359029   
O178     O      0.034930000000     0.719990000000     0.623150000000    -0.363758   
O179     O      0.999280000000     0.678070000000     0.991900000000    -0.362881   
O180     O      0.087390000000     0.827140000000     0.037570000000    -0.353008   
O181     O      0.086210000000     0.701250000000     0.569970000000    -0.360124   
O182     O      0.526860000000     0.788990000000     0.931120000000    -0.371338   
O183     O      0.555630000000     0.827580000000     0.966210000000    -0.371439   
O184     O      0.044140000000     0.669680000000     0.541260000000    -0.36434    
O185     O      0.502320000000     0.720240000000     0.942440000000    -0.367407   
O186     O      0.104640000000     0.771480000000     0.560880000000    -0.365292   
O187     O      0.536810000000     0.755040000000     0.017090000000    -0.589685   
O188     O      0.337630000000     0.501470000000     0.535950000000    -0.345183   
O189     O      0.200170000000     0.927580000000     0.053410000000    -0.366251   
O190     O      0.218760000000     0.492000000000     0.614380000000    -0.363497   
O191     O      0.313100000000     0.927400000000     0.973220000000    -0.363013   
O192     O      0.175780000000     0.970110000000     0.586030000000    -0.353482   
O193     O      0.340170000000     0.972360000000     0.488030000000    -0.360828   
O194     O      0.241450000000     0.902070000000     0.010760000000    -0.370684   
O195     O      0.301420000000     0.504550000000     0.591110000000    -0.351803   
O196     O      0.305740000000     0.519820000000     0.960180000000    -0.381488   
O197     O      0.174070000000     0.526900000000     0.046880000000    -0.374125   
O198     O      0.266480000000     0.563990000000     0.557810000000    -0.338436   
O199     O      0.216430000000     0.956760000000     0.949010000000    -0.360049   
O200     O      0.173400000000     0.982070000000     0.990200000000    -0.385036   
O201     O      0.295900000000     0.557530000000     0.499350000000    -0.355143   
O202     O      0.275580000000     0.972320000000     0.933530000000    -0.356923   
O203     O      0.205100000000     0.549300000000     0.573470000000    -0.3566     
O204     O      0.264320000000     0.477250000000     0.043420000000    -0.594478   
O205     O      0.538160000000     0.003780000000     0.196550000000    -0.374295   
O206     O      0.986980000000     0.459840000000     0.363080000000    -0.374315   
O207     O      0.569930000000     0.016300000000     0.317250000000    -0.361312   
O208     O      0.979040000000     0.426590000000     0.240520000000    -0.363513   
O209     O      0.526080000000     0.502260000000     0.364580000000    -0.348477   
O210     O      0.493650000000     0.466120000000     0.192900000000    -0.356018   
O211     O      0.975660000000     0.424340000000     0.315200000000    -0.377551   
O212     O      0.572700000000     0.025260000000     0.241720000000    -0.370962   
O213     O      0.933260000000     0.005730000000     0.200600000000    -0.346895   
O214     O      0.993550000000     0.049340000000     0.366550000000    -0.366811   
O215     O      0.524880000000     0.083120000000     0.243660000000    -0.360703   
O216     O      0.905090000000     0.470150000000     0.308600000000    -0.360814   
O217     O      0.920520000000     0.516750000000     0.342240000000    -0.388583   
O218     O      0.482970000000     0.063430000000     0.204320000000    -0.384069   
O219     O      0.912050000000     0.464260000000     0.241470000000    -0.331788   
O220     O      0.527330000000     0.077280000000     0.320490000000    -0.358023   
O221     O      0.473780000000     0.516400000000     0.278650000000    -0.596723   
O222     O      0.489810000000     0.199640000000     0.092630000000    -0.3746     
O223     O      0.975000000000     0.341060000000     0.507390000000    -0.370032   
O224     O      0.545020000000     0.291970000000     0.114290000000    -0.363492   
O225     O      0.930700000000     0.247770000000     0.484630000000    -0.340973   
O226     O      0.035230000000     0.338530000000     0.070710000000    -0.359744   
O227     O      0.949270000000     0.216490000000     0.036610000000    -0.351215   
O228     O      0.947510000000     0.303280000000     0.470290000000    -0.358623   
O229     O      0.535000000000     0.226050000000     0.122550000000    -0.363374   
O230     O      0.492570000000     0.175370000000     0.491860000000    -0.36058    
O231     O      0.573060000000     0.326240000000     0.538190000000    -0.35251    
O232     O      0.590170000000     0.204070000000     0.074710000000    -0.360285   
O233     O      0.012290000000     0.290840000000     0.433340000000    -0.368676   
O234     O      0.035710000000     0.330770000000     0.470930000000    -0.366643   
O235     O      0.549540000000     0.172660000000     0.043890000000    -0.365755   
O236     O      0.996340000000     0.217730000000     0.443450000000    -0.373795   
O237     O      0.611540000000     0.273540000000     0.066550000000    -0.365075   
O238     O      0.024080000000     0.252980000000     0.519450000000    -0.597603   
O239     O      0.844880000000     0.005350000000     0.051890000000    -0.340198   
O240     O      0.691570000000     0.425360000000     0.544280000000    -0.366776   
O241     O      0.721610000000     0.995670000000     0.125160000000    -0.361122   
O242     O      0.802880000000     0.422970000000     0.460910000000    -0.364039   
O243     O      0.680850000000     0.471030000000     0.095720000000    -0.355331   
O244     O      0.850110000000     0.471540000000     0.999720000000    -0.363179   
O245     O      0.731510000000     0.399010000000     0.500970000000    -0.370292   
O246     O      0.806310000000     0.006860000000     0.105580000000    -0.347634   
O247     O      0.793420000000     0.021310000000     0.444940000000    -0.381621   
O248     O      0.665520000000     0.026570000000     0.540450000000    -0.375827   
O249     O      0.772600000000     0.067030000000     0.072290000000    -0.338037   
O250     O      0.706020000000     0.452840000000     0.439880000000    -0.362734   
O251     O      0.663530000000     0.477050000000     0.482420000000    -0.384595   
O252     O      0.804300000000     0.061360000000     0.014860000000    -0.355931   
O253     O      0.765000000000     0.468070000000     0.421940000000    -0.355372   
O254     O      0.710490000000     0.052300000000     0.083990000000    -0.355225   
O255     O      0.756730000000     0.979040000000     0.530390000000    -0.595481   
O256     O      0.542070000000     0.000620000000     0.700900000000    -0.376947   
O257     O      0.021980000000     0.447840000000     0.865110000000    -0.380418   
O258     O      0.577680000000     0.019160000000     0.819670000000    -0.358148   
O259     O      0.986500000000     0.416750000000     0.752590000000    -0.361464   
O260     O      0.548110000000     0.498760000000     0.873950000000    -0.351897   
O261     O      0.495500000000     0.458500000000     0.703310000000    -0.367385   
O262     O      0.001340000000     0.413890000000     0.819770000000    -0.379902   
O263     O      0.577390000000     0.024750000000     0.743730000000    -0.369526   
O264     O      0.934770000000     0.001210000000     0.709050000000    -0.346173   
O265     O      0.997800000000     0.046770000000     0.870770000000    -0.36155    
O266     O      0.527810000000     0.081730000000     0.745700000000    -0.359334   
O267     O      0.921890000000     0.459920000000     0.828200000000    -0.356604   
O268     O      0.942590000000     0.504060000000     0.862100000000    -0.385482   
O269     O      0.485310000000     0.059700000000     0.708610000000    -0.383528   
O270     O      0.918630000000     0.459990000000     0.767630000000    -0.327621   
O271     O      0.530400000000     0.077280000000     0.823300000000    -0.355583   
O272     O      0.489190000000     0.506840000000     0.791100000000    -0.597855   
O273     O      0.482000000000     0.195300000000     0.593500000000    -0.375743   
O274     O      0.994980000000     0.345440000000     0.010440000000    -0.37373    
O275     O      0.538220000000     0.287920000000     0.613850000000    -0.364006   
O276     O      0.944560000000     0.255800000000     0.985290000000    -0.334653   
O277     O      0.018620000000     0.333770000000     0.574200000000    -0.367458   
O278     O      0.936890000000     0.209710000000     0.536790000000    -0.356746   
O279     O      0.963620000000     0.309190000000     0.975000000000    -0.360084   
O280     O      0.527950000000     0.222990000000     0.620980000000    -0.365218   
O281     O      0.500530000000     0.179320000000     0.992550000000    -0.360891   
O282     O      0.590350000000     0.327280000000     0.041310000000    -0.352394   
O283     O      0.580810000000     0.202220000000     0.570520000000    -0.361742   
O284     O      0.033250000000     0.288000000000     0.933200000000    -0.372017   
O285     O      0.062460000000     0.325960000000     0.968630000000    -0.372791   
O286     O      0.539140000000     0.169490000000     0.542680000000    -0.363361   
O287     O      0.005380000000     0.221190000000     0.943610000000    -0.36585    
O288     O      0.599240000000     0.271980000000     0.556110000000    -0.368451   
O289     O      0.039600000000     0.255310000000     0.019210000000    -0.588966   
O290     O      0.839750000000     0.013040000000     0.539460000000    -0.340613   
O291     O      0.701870000000     0.427600000000     0.060410000000    -0.36625    
O292     O      0.721110000000     0.998870000000     0.618210000000    -0.361666   
O293     O      0.815760000000     0.426960000000     0.980460000000    -0.362131   
O294     O      0.674510000000     0.468350000000     0.581840000000    -0.353502   
O295     O      0.838130000000     0.467820000000     0.477940000000    -0.364944   
O296     O      0.743900000000     0.401680000000     0.018770000000    -0.370769   
O297     O      0.802950000000     0.015720000000     0.594260000000    -0.348183   
O298     O      0.801220000000     0.021320000000     0.955250000000    -0.382897   
O299     O      0.672470000000     0.027010000000     0.044580000000    -0.375694   
O300     O      0.764000000000     0.071670000000     0.557800000000    -0.338933   
O301     O      0.719860000000     0.455240000000     0.955730000000    -0.36074    
O302     O      0.676350000000     0.481590000000     0.995610000000    -0.385218   
O303     O      0.794160000000     0.063930000000     0.499920000000    -0.354468   
O304     O      0.779610000000     0.470340000000     0.940870000000    -0.355299   
O305     O      0.704620000000     0.054250000000     0.576800000000    -0.354965   
O306     O      0.762010000000     0.976750000000     0.037950000000    -0.595331   
O307     O      0.536760000000     0.506050000000     0.197360000000    -0.374221   
O308     O      0.991100000000     0.957370000000     0.363600000000    -0.375482   
O309     O      0.565820000000     0.519510000000     0.315710000000    -0.36341    
O310     O      0.980610000000     0.924260000000     0.240900000000    -0.364741   
O311     O      0.529930000000     0.998850000000     0.365850000000    -0.346914   
O312     O      0.494130000000     0.963940000000     0.193010000000    -0.358874   
O313     O      0.978440000000     0.921690000000     0.316340000000    -0.378131   
O314     O      0.569630000000     0.529570000000     0.242580000000    -0.368595   
O315     O      0.932330000000     0.507580000000     0.198380000000    -0.345947   
O316     O      0.990310000000     0.551770000000     0.366380000000    -0.367421   
O317     O      0.520810000000     0.586870000000     0.243010000000    -0.361914   
O318     O      0.907980000000     0.968590000000     0.310350000000    -0.359999   
O319     O      0.924650000000     0.015240000000     0.343200000000    -0.38788    
O320     O      0.479920000000     0.566220000000     0.203240000000    -0.383329   
O321     O      0.913750000000     0.962080000000     0.243710000000    -0.331421   
O322     O      0.521850000000     0.581840000000     0.319480000000    -0.358179   
O323     O      0.477730000000     0.012870000000     0.279760000000    -0.600952   
O324     O      0.487210000000     0.700380000000     0.090520000000    -0.374904   
O325     O      0.980800000000     0.841500000000     0.516030000000    -0.371683   
O326     O      0.544090000000     0.791410000000     0.111640000000    -0.363573   
O327     O      0.932870000000     0.749430000000     0.493760000000    -0.340863   
O328     O      0.032980000000     0.837720000000     0.069480000000    -0.361171   
O329     O      0.947880000000     0.714870000000     0.037350000000    -0.350137   
O330     O      0.950000000000     0.805070000000     0.480290000000    -0.359824   
O331     O      0.532340000000     0.727310000000     0.119980000000    -0.362766   
O332     O      0.493320000000     0.676910000000     0.493820000000    -0.35814    
O333     O      0.579200000000     0.826420000000     0.539980000000    -0.351474   
O334     O      0.588600000000     0.704370000000     0.072330000000    -0.361631   
O335     O      0.013350000000     0.790140000000     0.437250000000    -0.369639   
O336     O      0.040570000000     0.829260000000     0.472910000000    -0.370396   
O337     O      0.548240000000     0.672250000000     0.042000000000    -0.365081   
O338     O      0.994700000000     0.719280000000     0.447330000000    -0.369582   
O339     O      0.609360000000     0.773330000000     0.061230000000    -0.365197   
O340     O      0.029230000000     0.752580000000     0.522000000000    -0.593625   
O341     O      0.845990000000     0.506490000000     0.059190000000    -0.341459   
O342     O      0.694700000000     0.927710000000     0.548880000000    -0.365227   
O343     O      0.721550000000     0.499170000000     0.129800000000    -0.36147    
O344     O      0.807090000000     0.926560000000     0.470700000000    -0.365323   
O345     O      0.679460000000     0.969940000000     0.090590000000    -0.354266   
O346     O      0.847600000000     0.971450000000     0.993430000000    -0.362712   
O347     O      0.735250000000     0.902220000000     0.505510000000    -0.368908   
O348     O      0.805990000000     0.509990000000     0.111690000000    -0.347291   
O349     O      0.789240000000     0.518730000000     0.441060000000    -0.382794   
O350     O      0.665620000000     0.525280000000     0.534660000000    -0.378098   
O351     O      0.773050000000     0.569050000000     0.075490000000    -0.338093   
O352     O      0.710030000000     0.955610000000     0.444770000000    -0.362555   
O353     O      0.666360000000     0.978680000000     0.486850000000    -0.382986   
O354     O      0.806630000000     0.561500000000     0.019390000000    -0.355895   
O355     O      0.769210000000     0.970120000000     0.427200000000    -0.357149   
O356     O      0.710650000000     0.554270000000     0.085840000000    -0.354919   
O357     O      0.754360000000     0.474390000000     0.525320000000    -0.596773   
O358     O      0.542050000000     0.496920000000     0.704030000000    -0.373885   
O359     O      0.010860000000     0.951830000000     0.861780000000    -0.377836   
O360     O      0.584020000000     0.517670000000     0.822590000000    -0.35956    
O361     O      0.983300000000     0.919700000000     0.748070000000    -0.357407   
O362     O      0.540320000000     0.999710000000     0.869640000000    -0.347763   
O363     O      0.498480000000     0.960080000000     0.699210000000    -0.358337   
O364     O      0.991130000000     0.917500000000     0.816350000000    -0.377135   
O365     O      0.580390000000     0.519000000000     0.745540000000    -0.371607   
O366     O      0.933910000000     0.505820000000     0.725360000000    -0.353777   
O367     O      0.004280000000     0.543580000000     0.875140000000    -0.362944   
O368     O      0.534300000000     0.577620000000     0.748100000000    -0.357363   
O369     O      0.913950000000     0.966310000000     0.818770000000    -0.362191   
O370     O      0.934330000000     0.009990000000     0.853570000000    -0.386061   
O371     O      0.490420000000     0.556690000000     0.711780000000    -0.377919   
O372     O      0.916260000000     0.958660000000     0.753850000000    -0.330202   
O373     O      0.534640000000     0.574590000000     0.825450000000    -0.356683   
O374     O      0.483540000000     0.010880000000     0.785180000000    -0.593035   
O375     O      0.488610000000     0.693720000000     0.595660000000    -0.373124   
O376     O      0.991200000000     0.844670000000     0.008480000000    -0.372581   
O377     O      0.543150000000     0.787160000000     0.615770000000    -0.364487   
O378     O      0.941450000000     0.753780000000     0.985930000000    -0.336476   
O379     O      0.027320000000     0.833740000000     0.576470000000    -0.363593   
O380     O      0.942160000000     0.709630000000     0.543950000000    -0.351981   
O381     O      0.959960000000     0.807880000000     0.973550000000    -0.35879    
O382     O      0.535580000000     0.720730000000     0.622200000000    -0.363461   
O383     O      0.498920000000     0.678450000000     0.991020000000    -0.363644   
O384     O      0.587030000000     0.827230000000     0.037470000000    -0.352889   
O385     O      0.586350000000     0.702190000000     0.568870000000    -0.360465   
O386     O      0.026830000000     0.788750000000     0.931530000000    -0.371569   
O387     O      0.055720000000     0.827380000000     0.966450000000    -0.371642   
O388     O      0.544050000000     0.670740000000     0.540330000000    -0.363903   
O389     O      0.002610000000     0.719720000000     0.943180000000    -0.367333   
O390     O      0.604890000000     0.772410000000     0.559610000000    -0.365491   
O391     O      0.037170000000     0.754810000000     0.017580000000    -0.589493   
O392     O      0.837990000000     0.502840000000     0.535310000000    -0.34525    
O393     O      0.699990000000     0.927300000000     0.054230000000    -0.36631    
O394     O      0.719270000000     0.493370000000     0.613650000000    -0.363266   
O395     O      0.813100000000     0.926940000000     0.974220000000    -0.363185   
O396     O      0.677900000000     0.970850000000     0.587140000000    -0.354269   
O397     O      0.841290000000     0.971770000000     0.488710000000    -0.363563   
O398     O      0.741420000000     0.901720000000     0.011770000000    -0.370846   
O399     O      0.801650000000     0.506320000000     0.590350000000    -0.351646   
O400     O      0.805620000000     0.519770000000     0.960920000000    -0.381209   
O401     O      0.673480000000     0.526900000000     0.047270000000    -0.373537   
O402     O      0.766580000000     0.565390000000     0.556540000000    -0.33847    
O403     O      0.716600000000     0.956370000000     0.949930000000    -0.359762   
O404     O      0.673470000000     0.981690000000     0.991000000000    -0.384992   
O405     O      0.796370000000     0.558600000000     0.498300000000    -0.35477    
O406     O      0.775460000000     0.972030000000     0.934580000000    -0.356942   
O407     O      0.705220000000     0.550520000000     0.572470000000    -0.356845   
O408     O      0.763830000000     0.477280000000     0.044110000000    -0.593813   


