data_structure

_audit_creation_method RASPA-1.0
_audit_creation_date 2023-6-4
_audit_author_name 'Poobodin Mano'

_cell_length_a    31.3133
_cell_length_b    31.7181
_cell_length_c    32.2897
_cell_angle_alpha 87.1384
_cell_angle_beta  93.8183
_cell_angle_gamma 120.436
_cell_volume      27584.4

_symmetry_cell_setting          triclinic
_symmetry_space_group_name_Hall 'P 1'
_symmetry_space_group_name_H-M  'P 1'
_symmetry_Int_Tables_number     1

_symmetry_equiv_pos_as_xyz 'x,y,z'

loop_
_atom_site_label
_atom_site_type_symbol
_atom_site_fract_x
_atom_site_fract_y
_atom_site_fract_z
_atom_site_charge
C1       C      0.995330000000     0.165560000000     0.024460000000     0.478651   
C2       C      0.950910000000     0.984190000000     0.997200000000     0.470287   
C3       C      0.039950000000     0.062910000000     0.944670000000     0.461764   
C4       C      0.941030000000     0.069190000000     0.105680000000     0.482165   
C5       C      0.053050000000     0.071740000000     0.145290000000     0.504266   
C6       C      0.141650000000     0.117110000000     0.020290000000     0.431852   
C7       C      0.126590000000     0.211400000000     0.045880000000     0.487373   
C8       C      0.997600000000     0.958760000000     0.083560000000     0.383792   
C9       C      0.054170000000     0.019090000000     0.446160000000     0.483338   
C10      C      0.056580000000     0.117460000000     0.585600000000     0.484729   
C11      C      0.933200000000     0.980040000000     0.503860000000     0.444653   
C12      C      0.163080000000     0.108650000000     0.532460000000     0.502226   
C13      C      0.146920000000     0.998340000000     0.584670000000     0.48718    
C14      C      0.958090000000     0.917150000000     0.586820000000     0.466748   
C15      C      0.019210000000     0.898010000000     0.483810000000     0.423025   
C16      C      0.031070000000     0.010580000000     0.651240000000     0.472165   
C17      C      0.928010000000     0.477940000000     0.011130000000     0.489236   
C18      C      0.025920000000     0.673520000000     0.025030000000     0.457383   
C19      C      0.928990000000     0.538630000000     0.116600000000     0.47428    
C20      C      0.068800000000     0.583690000000     0.953110000000     0.520219   
C21      C      0.134010000000     0.564230000000     0.043880000000     0.540999   
C22      C      0.046760000000     0.561170000000     0.152280000000     0.459963   
C23      C      0.970420000000     0.430510000000     0.077330000000     0.408085   
C24      C      0.116530000000     0.680810000000     0.101830000000     0.484575   
C25      C      0.964030000000     0.409650000000     0.531650000000     0.459797   
C26      C      0.071650000000     0.624830000000     0.497830000000     0.462658   
C27      C      0.943090000000     0.481440000000     0.572950000000     0.464121   
C28      C      0.090990000000     0.550680000000     0.450610000000     0.460694   
C29      C      0.159400000000     0.516770000000     0.528950000000     0.459652   
C30      C      0.046650000000     0.544020000000     0.650300000000     0.467545   
C31      C      0.079600000000     0.429900000000     0.575020000000     0.472616   
C32      C      0.128870000000     0.633720000000     0.599660000000     0.458987   
C33      C      0.438720000000     0.093210000000     0.013060000000     0.479693   
C34      C      0.572560000000     0.992320000000     0.988170000000     0.437703   
C35      C      0.545010000000     0.063880000000     0.924040000000     0.503029   
C36      C      0.426470000000     0.978190000000     0.057500000000     0.459739   
C37      C      0.531030000000     0.029970000000     0.131200000000     0.473794   
C38      C      0.649090000000     0.164720000000     0.975310000000     0.387568   
C39      C      0.553570000000     0.179510000000     0.052540000000     0.475048   
C40      C      0.627790000000     0.064510000000     0.077660000000     0.448073   
C41      C      0.455380000000     0.023990000000     0.510120000000     0.471746   
C42      C      0.571050000000     0.912300000000     0.497150000000     0.4572     
C43      C      0.550600000000     0.018170000000     0.434080000000     0.483914   
C44      C      0.441190000000     0.916160000000     0.579250000000     0.462284   
C45      C      0.555390000000     0.995040000000     0.633810000000     0.466787   
C46      C      0.668220000000     0.092340000000     0.488470000000     0.401134   
C47      C      0.542230000000     0.097980000000     0.585070000000     0.386955   
C48      C      0.641180000000     0.990270000000     0.576180000000     0.476007   
C49      C      0.458630000000     0.491300000000     0.002410000000     0.476047   
C50      C      0.570700000000     0.684310000000     0.995820000000     0.450413   
C51      C      0.437010000000     0.551570000000     0.082930000000     0.415936   
C52      C      0.596990000000     0.591050000000     0.942930000000     0.479445   
C53      C      0.663040000000     0.570160000000     0.036330000000     0.518034   
C54      C      0.554160000000     0.586160000000     0.144560000000     0.481012   
C55      C      0.532430000000     0.467640000000     0.079340000000     0.473462   
C56      C      0.649670000000     0.702510000000     0.079660000000     0.457605   
C57      C      0.460620000000     0.415200000000     0.525060000000     0.47351    
C58      C      0.600670000000     0.625910000000     0.491860000000     0.456066   
C59      C      0.459450000000     0.499150000000     0.568510000000     0.457555   
C60      C      0.599860000000     0.540680000000     0.443590000000     0.470962   
C61      C      0.652490000000     0.487650000000     0.522620000000     0.472034   
C62      C      0.566380000000     0.545770000000     0.644070000000     0.458531   
C63      C      0.563650000000     0.408420000000     0.568320000000     0.458345   
C64      C      0.655140000000     0.622730000000     0.593340000000     0.463909   
C65      C      0.642490000000     0.620760000000     0.879510000000     0.0293567  
C66      C      0.554260000000     0.574000000000     0.877620000000     0.0718557  
C67      C      0.640980000000     0.620790000000     0.835710000000    -0.0514454  
C68      C      0.569420000000     0.605730000000     0.739630000000    -0.0880912  
C69      C      0.552040000000     0.574090000000     0.834420000000    -0.0772196  
C70      C      0.593040000000     0.588400000000     0.767980000000     0.0424202  
C71      C      0.595580000000     0.596420000000     0.813080000000     0.0250788  
C72      C      0.562120000000     0.592370000000     0.697910000000     0.0758933  
C73      C      0.599930000000     0.544350000000     0.712220000000     0.0810206  
C74      C      0.609080000000     0.558100000000     0.753750000000    -0.0861033  
C75      C      0.692340000000     0.642410000000     0.900870000000     0.286019   
C76      C      0.551480000000     0.537310000000     0.205370000000     0.0368717  
C77      C      0.596260000000     0.624230000000     0.208210000000     0.0723844  
C78      C      0.567630000000     0.534620000000     0.246320000000    -0.0531689  
C79      C      0.555550000000     0.536620000000     0.335760000000    -0.0889439  
C80      C      0.609990000000     0.622010000000     0.250300000000    -0.0750914  
C81      C      0.598300000000     0.570750000000     0.315910000000     0.0445049  
C82      C      0.594660000000     0.576620000000     0.269950000000     0.0258258  
C83      C      0.557590000000     0.527010000000     0.377920000000     0.0856039  
C84      C      0.643360000000     0.585700000000     0.383090000000     0.0790345  
C85      C      0.642700000000     0.596090000000     0.340080000000    -0.0856594  
C86      C      0.511650000000     0.490030000000     0.187980000000     0.299306   
C87      C      0.561920000000     0.666930000000     0.455240000000     0.0220464  
C88      C      0.644340000000     0.712280000000     0.484220000000     0.066901   
C89      C      0.560330000000     0.710270000000     0.449760000000    -0.0527595  
C90      C      0.545190000000     0.789030000000     0.477860000000    -0.0891634  
C91      C      0.642870000000     0.755730000000     0.480140000000    -0.0767898  
C92      C      0.591930000000     0.797200000000     0.468450000000     0.0410548  
C93      C      0.599360000000     0.754560000000     0.464860000000     0.0227172  
C94      C      0.538490000000     0.828120000000     0.485000000000     0.0743314  
C95      C      0.622880000000     0.884380000000     0.472880000000     0.0737736  
C96      C      0.630910000000     0.845800000000     0.465260000000    -0.0878172  
C97      C      0.518190000000     0.621450000000     0.438670000000     0.295324   
C98      C      0.549150000000     0.328480000000     0.550880000000     0.0256094  
C99      C      0.582140000000     0.360980000000     0.617990000000     0.0666411  
C100     C      0.545920000000     0.284300000000     0.563820000000    -0.0515052  
C101     C      0.601870000000     0.228420000000     0.604540000000    -0.0843513  
C102     C      0.580860000000     0.317410000000     0.630970000000    -0.0764476  
C103     C      0.561140000000     0.232240000000     0.614090000000     0.039763   
C104     C      0.561700000000     0.278410000000     0.603790000000     0.0252069  
C105     C      0.595840000000     0.182410000000     0.598430000000     0.0729963  
C106     C      0.511770000000     0.143690000000     0.616090000000     0.0715058  
C107     C      0.516280000000     0.189340000000     0.621730000000    -0.0853754  
C108     C      0.534520000000     0.330850000000     0.506540000000     0.299094   
C109     C      0.582160000000     0.043570000000     0.870380000000     0.0349893  
C110     C      0.504710000000     0.040170000000     0.857350000000     0.0792395  
C111     C      0.580130000000     0.029230000000     0.829690000000    -0.0513584  
C112     C      0.534420000000     0.969490000000     0.744730000000    -0.0890566  
C113     C      0.503180000000     0.027840000000     0.816070000000    -0.0757586  
C114     C      0.544130000000     0.014830000000     0.758090000000     0.0435859  
C115     C      0.541390000000     0.022610000000     0.802130000000     0.0274596  
C116     C      0.540100000000     0.963840000000     0.703170000000     0.0793402  
C117     C      0.567450000000     0.047630000000     0.688900000000     0.0808653  
C118     C      0.561360000000     0.054300000000     0.730020000000    -0.0889399  
C119     C      0.628540000000     0.055840000000     0.894840000000     0.299926   
C120     C      0.520130000000     0.977550000000     0.191860000000     0.0257572  
C121     C      0.548490000000     0.062290000000     0.198380000000     0.0688613  
C122     C      0.516990000000     0.971420000000     0.235230000000    -0.0515935  
C123     C      0.549080000000     0.981600000000     0.328150000000    -0.0873649  
C124     C      0.546230000000     0.057090000000     0.241280000000    -0.0781667  
C125     C      0.528070000000     0.006210000000     0.305940000000     0.0439403  
C126     C      0.529570000000     0.011240000000     0.260140000000     0.0246302  
C127     C      0.553960000000     0.983690000000     0.371430000000     0.08167    
C128     C      0.514350000000     0.030660000000     0.371170000000     0.0784061  
C129     C      0.509100000000     0.029500000000     0.327980000000    -0.0886989  
C130     C      0.511580000000     0.934640000000     0.168360000000     0.292816   
C131     C      0.537070000000     0.912970000000     0.957120000000     0.0267157  
C132     C      0.620120000000     0.953110000000     0.985150000000     0.0758062  
C133     C      0.538590000000     0.869820000000     0.953540000000    -0.0507315  
C134     C      0.534610000000     0.777490000000     0.983930000000    -0.0881008  
C135     C      0.622410000000     0.910240000000     0.981630000000    -0.0732894  
C136     C      0.577720000000     0.818520000000     0.970030000000     0.0411723  
C137     C      0.580490000000     0.867210000000     0.967330000000     0.0242913  
C138     C      0.532140000000     0.732500000000     0.989670000000     0.0754016  
C139     C      0.613080000000     0.765740000000     0.966160000000     0.072517   
C140     C      0.617180000000     0.812060000000     0.960530000000    -0.0871226  
C141     C      0.492010000000     0.912570000000     0.938800000000     0.292924   
C142     C      0.567420000000     0.423190000000     0.114530000000     0.0400948  
C143     C      0.486240000000     0.381820000000     0.082390000000     0.0741361  
C144     C      0.569730000000     0.380000000000     0.114040000000    -0.0502113  
C145     C      0.534160000000     0.284020000000     0.043720000000    -0.0894056  
C146     C      0.488080000000     0.338680000000     0.081040000000    -0.0774409  
C147     C      0.538880000000     0.297370000000     0.085030000000     0.0405868  
C148     C      0.531290000000     0.338360000000     0.094970000000     0.0261238  
C149     C      0.542700000000     0.246850000000     0.033450000000     0.0750355  
C150     C      0.561060000000     0.235370000000     0.104030000000     0.072223   
C151     C      0.553950000000     0.273620000000     0.115330000000    -0.0884636  
C152     C      0.607720000000     0.465410000000     0.138340000000     0.291113   
C153     C      0.709990000000     0.178440000000     0.471750000000     0.0268943  
C154     C      0.755710000000     0.138530000000     0.490950000000     0.0713848  
C155     C      0.753500000000     0.224100000000     0.475820000000    -0.0512705  
C156     C      0.866900000000     0.281250000000     0.537780000000    -0.0878585  
C157     C      0.799440000000     0.183570000000     0.495120000000    -0.0770892  
C158     C      0.842290000000     0.274730000000     0.498920000000     0.0430812  
C159     C      0.798150000000     0.226860000000     0.488930000000     0.0249974  
C160     C      0.906640000000     0.326980000000     0.548400000000     0.079103   
C161     C      0.898990000000     0.360080000000     0.482650000000     0.0743568  
C162     C      0.858260000000     0.314800000000     0.471290000000    -0.0881782  
C163     C      0.665040000000     0.177850000000     0.452740000000     0.291721   
C164     C      0.207780000000     0.683750000000     0.635440000000     0.0228019  
C165     C      0.161100000000     0.718850000000     0.605370000000     0.0676838  
C166     C      0.250290000000     0.730240000000     0.637010000000    -0.0537252  
C167     C      0.321530000000     0.803600000000     0.576740000000    -0.0908645  
C168     C      0.203470000000     0.765510000000     0.605830000000    -0.0781143  
C169     C      0.296120000000     0.812440000000     0.605800000000     0.0410859  
C170     C      0.249060000000     0.770580000000     0.619270000000     0.0227703  
C171     C      0.369360000000     0.839250000000     0.567740000000     0.0758264  
C172     C      0.366830000000     0.894130000000     0.613500000000     0.0734882  
C173     C      0.318350000000     0.858610000000     0.623610000000    -0.0894834  
C174     C      0.212190000000     0.642200000000     0.654350000000     0.295108   
C175     C      0.859810000000     0.434650000000     0.598940000000     0.0260505  
C176     C      0.873280000000     0.458980000000     0.527930000000     0.0715679  
C177     C      0.809100000000     0.419090000000     0.591550000000    -0.0502558  
C178     C      0.716400000000     0.419090000000     0.510670000000    -0.0849823  
C179     C      0.823610000000     0.444370000000     0.520090000000    -0.0749593  
C180     C      0.745530000000     0.430460000000     0.548040000000     0.0432167  
C181     C      0.791510000000     0.427380000000     0.552610000000     0.0249212  
C182     C      0.682790000000     0.435920000000     0.503130000000     0.0810814  
C183     C      0.704050000000     0.471770000000     0.569480000000     0.0788846  
C184     C      0.736900000000     0.454920000000     0.578290000000    -0.0871978  
C185     C      0.876240000000     0.431280000000     0.642470000000     0.288536   
C186     C      0.379100000000     0.470410000000     0.597770000000     0.0229647  
C187     C      0.392470000000     0.493220000000     0.526460000000     0.0704495  
C188     C      0.331090000000     0.464110000000     0.592070000000    -0.0508826  
C189     C      0.238720000000     0.465040000000     0.512650000000    -0.0879013  
C190     C      0.345480000000     0.487450000000     0.520260000000    -0.074344   
C191     C      0.269820000000     0.479580000000     0.548850000000     0.0425552  
C192     C      0.314810000000     0.474700000000     0.553490000000     0.0238871  
C193     C      0.201390000000     0.477110000000     0.506450000000     0.0732572  
C194     C      0.224310000000     0.516630000000     0.571240000000     0.0777337  
C195     C      0.261450000000     0.504850000000     0.578560000000    -0.0849048  
C196     C      0.395400000000     0.464530000000     0.640750000000     0.289162   
C197     C      0.066750000000     0.542650000000     0.891590000000     0.0314486  
C198     C      0.072870000000     0.620640000000     0.886160000000     0.0697707  
C199     C      0.060340000000     0.538590000000     0.848450000000    -0.0537595  
C200     C      0.084260000000     0.550160000000     0.760320000000    -0.0877651  
C201     C      0.069080000000     0.618280000000     0.842600000000    -0.074993   
C202     C      0.061280000000     0.573020000000     0.777190000000     0.0459553  
C203     C      0.062680000000     0.576770000000     0.823260000000     0.0254669  
C204     C      0.078360000000     0.540640000000     0.718220000000     0.0873528  
C205     C      0.031220000000     0.579900000000     0.707090000000     0.0832216  
C206     C      0.035220000000     0.588890000000     0.749860000000    -0.0848436  
C207     C      0.074000000000     0.504570000000     0.914410000000     0.29       
C208     C      0.084560000000     0.534710000000     0.208270000000     0.0287477  
C209     C      0.075710000000     0.604140000000     0.215280000000     0.0771799  
C210     C      0.095590000000     0.534840000000     0.251280000000    -0.0526111  
C211     C      0.137960000000     0.598370000000     0.347000000000    -0.0888723  
C212     C      0.088950000000     0.606390000000     0.257490000000    -0.0774729  
C213     C      0.097870000000     0.565020000000     0.321770000000     0.0445118  
C214     C      0.096610000000     0.570170000000     0.276140000000     0.0250073  
C215     C      0.135650000000     0.593090000000     0.390390000000     0.0784655  
C216     C      0.054470000000     0.524270000000     0.383350000000     0.0809069  
C217     C      0.056080000000     0.527680000000     0.340350000000    -0.0910296  
C218     C      0.091280000000     0.500700000000     0.183190000000     0.294789   
C219     C      0.880000000000     0.429570000000     0.952300000000     0.0316215  
C220     C      0.840650000000     0.431510000000     0.011970000000     0.0814291  
C221     C      0.838680000000     0.383950000000     0.941790000000    -0.0531153  
C222     C      0.771560000000     0.273400000000     0.964310000000    -0.0860564  
C223     C      0.798220000000     0.387590000000     0.001120000000    -0.0743461  
C224     C      0.759320000000     0.310240000000     0.961970000000     0.0437655  
C225     C      0.798600000000     0.361730000000     0.967550000000     0.0291799  
C226     C      0.734020000000     0.224420000000     0.966790000000     0.0774301  
C227     C      0.672820000000     0.247750000000     0.960940000000     0.0754891  
C228     C      0.709420000000     0.297070000000     0.959310000000    -0.0875157  
C229     C      0.918270000000     0.455870000000     0.921110000000     0.294589   
C230     C      0.203510000000     0.730640000000     0.118300000000     0.0236208  
C231     C      0.153510000000     0.766960000000     0.104020000000     0.0724715  
C232     C      0.246160000000     0.775850000000     0.110780000000    -0.0539325  
C233     C      0.314050000000     0.857960000000     0.053010000000    -0.0883687  
C234     C      0.195730000000     0.812740000000     0.097480000000    -0.0753584  
C235     C      0.286740000000     0.861410000000     0.083880000000     0.0439013  
C236     C      0.242220000000     0.816560000000     0.098230000000     0.0237376  
C237     C      0.359360000000     0.898330000000     0.042840000000     0.079921   
C238     C      0.350360000000     0.946390000000     0.091660000000     0.0797576  
C239     C      0.304300000000     0.906640000000     0.102260000000    -0.087479   
C240     C      0.210070000000     0.689740000000     0.136020000000     0.293006   
C241     C      0.691220000000     0.511240000000     0.046910000000     0.0346581  
C242     C      0.707050000000     0.569840000000     0.097780000000     0.0851501  
C243     C      0.723230000000     0.498700000000     0.069740000000    -0.0497746  
C244     C      0.836390000000     0.570060000000     0.127120000000    -0.0909295  
C245     C      0.736660000000     0.556460000000     0.121610000000    -0.0805719  
C246     C      0.793500000000     0.524200000000     0.122490000000     0.0450242  
C247     C      0.747890000000     0.523200000000     0.106360000000     0.0303025  
C248     C      0.882120000000     0.573460000000     0.129820000000     0.0862047  
C249     C      0.844470000000     0.486890000000     0.130970000000     0.0839135  
C250     C      0.797340000000     0.481960000000     0.126510000000    -0.0873846  
C251     C      0.665810000000     0.483310000000     0.008850000000     0.29147    
C252     C      0.382760000000     0.579240000000     0.052910000000     0.0281048  
C253     C      0.354810000000     0.516050000000     0.104910000000     0.0660867  
C254     C      0.340280000000     0.582230000000     0.056340000000    -0.0555151  
C255     C      0.261310000000     0.600330000000     0.077990000000    -0.0868036  
C256     C      0.310890000000     0.517330000000     0.107400000000    -0.0755219  
C257     C      0.258370000000     0.554670000000     0.082660000000     0.0471541  
C258     C      0.304340000000     0.552050000000     0.083800000000     0.0247681  
C259     C      0.219530000000     0.602990000000     0.064680000000     0.0921208  
C260     C      0.170640000000     0.516400000000     0.065600000000     0.0925693  
C261     C      0.212050000000     0.512380000000     0.077790000000    -0.0894219  
C262     C      0.411610000000     0.604830000000     0.015490000000     0.281341   
C263     C      0.733860000000     0.658210000000     0.631990000000     0.025131   
C264     C      0.697940000000     0.706530000000     0.609690000000     0.0686202  
C265     C      0.779890000000     0.700780000000     0.638990000000    -0.0531237  
C266     C      0.874620000000     0.788370000000     0.610860000000    -0.0882341  
C267     C      0.743230000000     0.749310000000     0.616790000000    -0.0775183  
C268     C      0.835650000000     0.790770000000     0.627640000000     0.0435877  
C269     C      0.785510000000     0.746620000000     0.629230000000     0.0236374  
C270     C      0.918000000000     0.831410000000     0.600770000000     0.0813042  
C271     C      0.887090000000     0.878690000000     0.627150000000     0.077384   
C272     C      0.843500000000     0.836550000000     0.637900000000    -0.0906095  
C273     C      0.730000000000     0.610920000000     0.645720000000     0.292128   
C274     C      0.399110000000     0.358610000000     0.475190000000     0.0265178  
C275     C      0.383080000000     0.354850000000     0.546890000000     0.0762853  
C276     C      0.352680000000     0.316060000000     0.468390000000    -0.0506678  
C277     C      0.277140000000     0.203570000000     0.486630000000    -0.0902356  
C278     C      0.337220000000     0.313290000000     0.540760000000    -0.0774601  
C279     C      0.276070000000     0.245260000000     0.497470000000     0.044767   
C280     C      0.322150000000     0.292820000000     0.501560000000     0.0254507  
C281     C      0.237150000000     0.157130000000     0.495850000000     0.0790461  
C282     C      0.194580000000     0.193310000000     0.522490000000     0.0819403  
C283     C      0.233150000000     0.239760000000     0.513260000000    -0.0915481  
C284     C      0.431580000000     0.378000000000     0.439340000000     0.295486   
C285     C      0.881220000000     0.015380000000     0.496290000000     0.0201783  
C286     C      0.852790000000     0.937630000000     0.529440000000     0.0673613  
C287     C      0.841360000000     0.017520000000     0.511480000000    -0.0524549  
C288     C      0.770580000000     0.029790000000     0.560670000000    -0.0883306  
C289     C      0.813940000000     0.939750000000     0.546000000000    -0.0790522  
C290     C      0.767300000000     0.984280000000     0.555980000000     0.0435164  
C291     C      0.808360000000     0.980700000000     0.538170000000     0.020901   
C292     C      0.728970000000     0.031800000000     0.571070000000     0.0827817  
C293     C      0.683360000000     0.945660000000     0.579000000000     0.0815224  
C294     C      0.723310000000     0.942100000000     0.567120000000    -0.0902915  
C295     C      0.913650000000     0.054870000000     0.466840000000     0.29127    
C296     C      0.235260000000     0.032010000000     0.597720000000     0.0211982  
C297     C      0.186840000000     0.959890000000     0.558470000000     0.066327   
C298     C      0.278670000000     0.036550000000     0.582930000000    -0.0567013  
C299     C      0.360160000000     0.054570000000     0.525790000000    -0.0884114  
C300     C      0.229210000000     0.963410000000     0.543750000000    -0.0806551  
C301     C      0.321020000000     0.008510000000     0.537410000000     0.0415762  
C302     C      0.275700000000     0.003140000000     0.554500000000     0.023688   
C303     C      0.404060000000     0.059000000000     0.512950000000     0.0789626  
C304     C      0.369850000000     0.973170000000     0.520130000000     0.0802612  
C305     C      0.325740000000     0.967410000000     0.533090000000    -0.0891203  
C306     C      0.241100000000     0.065910000000     0.630730000000     0.284467   
C307     C      0.024330000000     0.655090000000     0.458050000000     0.021899   
C308     C      0.105090000000     0.709650000000     0.486610000000     0.0684376  
C309     C      0.016020000000     0.694510000000     0.450430000000    -0.0548166  
C310     C      0.992970000000     0.773830000000     0.467020000000    -0.0847906  
C311     C      0.097550000000     0.749130000000     0.479550000000    -0.0784048  
C312     C      0.040840000000     0.782490000000     0.460710000000     0.0396989  
C313     C      0.051820000000     0.741720000000     0.462840000000     0.024082   
C314     C      0.985240000000     0.813150000000     0.471470000000     0.076811   
C315     C      0.070340000000     0.869220000000     0.461880000000     0.0774404  
C316     C      0.079060000000     0.831070000000     0.456040000000    -0.0897026  
C317     C      0.986410000000     0.606690000000     0.441040000000     0.297271   
C318     C      0.093710000000     0.376220000000     0.623170000000     0.0248626  
C319     C      0.106040000000     0.379290000000     0.550840000000     0.075787   
C320     C      0.097830000000     0.333970000000     0.627420000000    -0.0497782  
C321     C      0.111660000000     0.243020000000     0.621470000000    -0.0907967  
C322     C      0.110880000000     0.338380000000     0.554420000000    -0.0813401  
C323     C      0.090420000000     0.261670000000     0.592150000000     0.0429543  
C324     C      0.102690000000     0.313080000000     0.592150000000     0.0251769  
C325     C      0.099550000000     0.194290000000     0.619120000000     0.0787053  
C326     C      0.044840000000     0.182380000000     0.560530000000     0.0767355  
C327     C      0.056140000000     0.230600000000     0.561900000000    -0.0897013  
C328     C      0.081250000000     0.391940000000     0.660770000000     0.296367   
C329     C      0.011580000000     0.067190000000     0.873890000000     0.0264915  
C330     C      0.045030000000     0.015870000000     0.893190000000     0.0827726  
C331     C      0.002690000000     0.050210000000     0.833160000000    -0.0506279  
C332     C      0.977060000000     0.002830000000     0.749910000000    -0.0874404  
C333     C      0.036520000000     0.998610000000     0.853020000000    -0.0737905  
C334     C      0.014030000000     0.004540000000     0.777940000000     0.0423783  
C335     C      0.015960000000     0.016350000000     0.822200000000     0.0279688  
C336     C      0.981740000000     0.001880000000     0.707380000000     0.0803723  
C337     C      0.055320000000     0.998300000000     0.719870000000     0.0781521  
C338     C      0.052330000000     0.000100000000     0.762480000000    -0.0864842  
C339     C      0.003010000000     0.108220000000     0.880900000000     0.298284   
C340     C      0.099660000000     0.099000000000     0.210660000000     0.032082   
C341     C      0.026450000000     0.020960000000     0.205250000000     0.0752704  
C342     C      0.097470000000     0.095760000000     0.254070000000    -0.0524457  
C343     C      0.011670000000     0.023650000000     0.338700000000    -0.0863284  
C344     C      0.024970000000     0.015890000000     0.248310000000    -0.0779036  
C345     C      0.057190000000     0.050100000000     0.319460000000     0.0440923  
C346     C      0.059410000000     0.054360000000     0.273370000000     0.0283603  
C347     C      0.010860000000     0.015790000000     0.381720000000     0.0816572  
C348     C      0.098560000000     0.063530000000     0.387530000000     0.0796345  
C349     C      0.100820000000     0.071150000000     0.344760000000    -0.088447   
C350     C      0.145440000000     0.139840000000     0.192810000000     0.291773   
C351     C      0.896670000000     0.899460000000     0.979250000000     0.0272392  
C352     C      0.864710000000     0.950550000000     0.993320000000     0.0802407  
C353     C      0.851680000000     0.858160000000     0.990660000000    -0.050463   
C354     C      0.775940000000     0.784210000000     0.047600000000    -0.0876101  
C355     C      0.820280000000     0.910710000000     0.005270000000    -0.0774893  
C356     C      0.771540000000     0.822450000000     0.027990000000     0.0404983  
C357     C      0.814570000000     0.863980000000     0.007220000000     0.0248625  
C358     C      0.735510000000     0.745550000000     0.066830000000     0.0649851  
C359     C      0.687670000000     0.783560000000     0.051700000000     0.0777149  
C360     C      0.726650000000     0.821880000000     0.030880000000    -0.0899294  
C361     C      0.933510000000     0.891770000000     0.959130000000     0.291734   
C362     C      0.175690000000     0.292740000000     0.017970000000     0.0302175  
C363     C      0.212870000000     0.256830000000     0.062500000000     0.0728793  
C364     C      0.222780000000     0.331410000000     0.008360000000    -0.0552847  
C365     C      0.324740000000     0.422330000000     0.014460000000    -0.0872358  
C366     C      0.260210000000     0.295400000000     0.053670000000    -0.0772027  
C367     C      0.315280000000     0.374140000000     0.015540000000     0.0445576  
C368     C      0.265510000000     0.332760000000     0.025690000000     0.0254202  
C369     C      0.372210000000     0.461040000000     0.006880000000     0.0831145  
C370     C      0.400700000000     0.405740000000     0.998790000000     0.0847753  
C371     C      0.353640000000     0.366010000000     0.006560000000    -0.0912983  
C372     C      0.132290000000     0.297540000000     0.002820000000     0.286242   
C373     C      0.895090000000     0.100680000000     0.139180000000     0.0226596  
C374     C      0.853640000000     0.030130000000     0.097410000000     0.0719265  
C375     C      0.850850000000     0.102690000000     0.138760000000    -0.05228    
C376     C      0.760140000000     0.112530000000     0.105070000000    -0.0843181  
C377     C      0.809290000000     0.030270000000     0.098040000000    -0.077136   
C378     C      0.760440000000     0.069120000000     0.115170000000     0.0413496  
C379     C      0.807540000000     0.067560000000     0.117660000000     0.0249584  
C380     C      0.714970000000     0.111130000000     0.095410000000     0.0787142  
C381     C      0.670430000000     0.025780000000     0.108910000000     0.0754376  
C382     C      0.714640000000     0.025860000000     0.118690000000    -0.0850508  
C383     C      0.936680000000     0.134170000000     0.167680000000     0.288026   
C384     C      0.366760000000     0.089510000000     0.974710000000     0.0253324  
C385     C      0.397570000000     0.130360000000     0.039020000000     0.0697463  
C386     C      0.329170000000     0.102140000000     0.972750000000    -0.0498802  
C387     C      0.256620000000     0.117910000000     0.046820000000    -0.0867484  
C388     C      0.360960000000     0.142890000000     0.037710000000    -0.0804449  
C389     C      0.280220000000     0.131790000000     0.009140000000     0.0377387  
C390     C      0.325170000000     0.127640000000     0.005150000000     0.0226713  
C391     C      0.212150000000     0.116850000000     0.050550000000     0.0713347  
C392     C      0.214790000000     0.147080000000     0.981610000000     0.073592   
C393     C      0.259430000000     0.147570000000     0.976420000000    -0.0843736  
C394     C      0.364050000000     0.056520000000     0.942310000000     0.290826   
C395     C      0.055530000000     0.760570000000     0.014210000000     0.0212707  
C396     C      0.973440000000     0.705490000000     0.034020000000     0.0676575  
C397     C      0.050100000000     0.800150000000     0.025280000000    -0.0515583  
C398     C      0.043970000000     0.875120000000     0.074410000000    -0.085111   
C399     C      0.967220000000     0.743910000000     0.045040000000    -0.0750139  
C400     C      0.001950000000     0.833480000000     0.058320000000     0.0384055  
C401     C      0.006400000000     0.792060000000     0.042660000000     0.0222687  
C402     C      0.040730000000     0.915210000000     0.085890000000     0.0692382  
C403     C      0.954190000000     0.872920000000     0.070470000000     0.0756189  
C404     C      0.956190000000     0.832130000000     0.058020000000    -0.07766    
C405     C      0.101000000000     0.772370000000     0.992870000000     0.292593   
C406     C      0.908110000000     0.344090000000     0.069910000000     0.0266922  
C407     C      0.976880000000     0.383440000000     0.026690000000     0.0852921  
C408     C      0.897540000000     0.298370000000     0.055530000000    -0.053336   
C409     C      0.931100000000     0.224570000000     0.058700000000    -0.0872807  
C410     C      0.966090000000     0.338920000000     0.010990000000    -0.0818852  
C411     C      0.928890000000     0.249600000000     0.022600000000     0.0429173  
C412     C      0.928150000000     0.295540000000     0.027350000000     0.0276318  
C413     C      0.950380000000     0.193810000000     0.057700000000     0.0857814  
C414     C      0.956610000000     0.203990000000     0.984760000000     0.0853655  
C415     C      0.939290000000     0.237140000000     0.984800000000    -0.0855504  
C416     C      0.871910000000     0.344190000000     0.097230000000     0.294316   
Co1      Co     0.049580000000     0.140520000000     0.091640000000     1.1506     
Co2      Co     0.052380000000     0.034170000000     0.025980000000     0.885148   
Co3      Co     0.056000000000     0.135900000000     0.993410000000     1.12912    
Co4      Co     0.989600000000     0.028680000000     0.066500000000     1.11402    
Co5      Co     0.101710000000     0.003810000000     0.514950000000     1.0169     
Co6      Co     0.992600000000     0.022440000000     0.567470000000     1.09337    
Co7      Co     0.005520000000     0.952360000000     0.515970000000     1.05529    
Co8      Co     0.103050000000     0.059920000000     0.597510000000     1.15657    
Co9      Co     0.031370000000     0.510020000000     0.021980000000     1.1416     
Co10     Co     0.011270000000     0.612020000000     0.088810000000     1.09925    
Co11     Co     0.985230000000     0.506490000000     0.087620000000     1.05161    
Co12     Co     0.097390000000     0.634000000000     0.030150000000     1.08948    
Co13     Co     0.054560000000     0.476770000000     0.504950000000     1.09133    
Co14     Co     0.028760000000     0.567140000000     0.563720000000     1.08681    
Co15     Co     0.028290000000     0.471080000000     0.599840000000     1.1001     
Co16     Co     0.131300000000     0.584110000000     0.535780000000     1.07847    
Co17     Co     0.505230000000     0.083030000000     0.078110000000     1.1032     
Co18     Co     0.600760000000     0.091090000000     0.006140000000     1.09784    
Co19     Co     0.527550000000     0.114050000000     0.980380000000     1.02253    
Co20     Co     0.520310000000     0.997310000000     0.048720000000     1.09037    
Co21     Co     0.516780000000     0.015670000000     0.563640000000     1.08493    
Co22     Co     0.606300000000     0.016410000000     0.507770000000     1.177      
Co23     Co     0.558180000000     0.067500000000     0.507470000000     0.792443   
Co24     Co     0.532920000000     0.929540000000     0.564690000000     1.14256    
Co25     Co     0.564670000000     0.525260000000     0.008690000000     1.12257    
Co26     Co     0.546100000000     0.636340000000     0.069840000000     0.951657   
Co27     Co     0.504040000000     0.543060000000     0.070100000000     1.05961    
Co28     Co     0.636400000000     0.640820000000     0.025000000000     1.11965    
Co29     Co     0.553360000000     0.466560000000     0.498370000000     1.13529    
Co30     Co     0.552910000000     0.572030000000     0.557370000000     1.08725    
Co31     Co     0.531310000000     0.468120000000     0.593910000000     1.06292    
Co32     Co     0.645020000000     0.569040000000     0.527930000000     1.08809    
H1       H      0.543460000000     0.606300000000     0.676910000000     0.0308486  
H2       H      0.519150000000     0.555350000000     0.892660000000     0.0355213  
H3       H      0.626680000000     0.543340000000     0.775040000000     0.0619453  
H4       H      0.516270000000     0.554750000000     0.817830000000     0.0557839  
H5       H      0.556010000000     0.628790000000     0.749810000000     0.0577386  
H6       H      0.675140000000     0.637530000000     0.819340000000     0.0604576  
H7       H      0.611430000000     0.519370000000     0.702920000000     0.0431219  
H8       H      0.761550000000     0.702180000000     0.902300000000     0.184647   
H9       H      0.523260000000     0.499190000000     0.391060000000     0.03339    
H10      H      0.609010000000     0.660140000000     0.194100000000     0.0325577  
H11      H      0.676610000000     0.622800000000     0.325810000000     0.0564441  
H12      H      0.630720000000     0.655440000000     0.267660000000     0.0545798  
H13      H      0.520210000000     0.516720000000     0.318620000000     0.0592584  
H14      H      0.554960000000     0.499030000000     0.261170000000     0.0592929  
H15      H      0.678080000000     0.605570000000     0.401090000000     0.0264664  
H16      H      0.441470000000     0.454890000000     0.162400000000     0.194283   
H17      H      0.501810000000     0.819490000000     0.493060000000     0.0284672  
H18      H      0.677670000000     0.714610000000     0.498820000000     0.029004   
H19      H      0.667530000000     0.854090000000     0.457580000000     0.0553855  
H20      H      0.674480000000     0.789230000000     0.491670000000     0.0493933  
H21      H      0.513920000000     0.752390000000     0.481570000000     0.0576622  
H22      H      0.527840000000     0.709150000000     0.434590000000     0.0579788  
H23      H      0.654250000000     0.921350000000     0.471360000000     0.0348066  
H24      H      0.495990000000     0.557220000000     0.411060000000     0.189085   
H25      H      0.627530000000     0.181170000000     0.588350000000     0.0372519  
H26      H      0.596280000000     0.390010000000     0.640340000000     0.0318337  
H27      H      0.483830000000     0.191110000000     0.628600000000     0.0580383  
H28      H      0.594420000000     0.314190000000     0.662020000000     0.0545537  
H29      H      0.636930000000     0.260900000000     0.598000000000     0.0602159  
H30      H      0.532540000000     0.254650000000     0.542080000000     0.0595314  
H31      H      0.475600000000     0.111350000000     0.619550000000     0.0336161  
H32      H      0.478240000000     0.297950000000     0.462970000000     0.191095   
H33      H      0.531170000000     0.927860000000     0.693610000000     0.0258812  
H34      H      0.474190000000     0.043820000000     0.866880000000     0.037756   
H35      H      0.570530000000     0.090210000000     0.739910000000     0.059795   
H36      H      0.472630000000     0.023010000000     0.795070000000     0.0579445  
H37      H      0.522300000000     0.938630000000     0.766220000000     0.060574   
H38      H      0.610400000000     0.026060000000     0.818680000000     0.0572729  
H39      H      0.580470000000     0.079060000000     0.667960000000     0.0323526  
H40      H      0.693180000000     0.112090000000     0.918140000000     0.192835   
H41      H      0.572320000000     0.965930000000     0.387500000000     0.0351293  
H42      H      0.560700000000     0.098670000000     0.185500000000     0.0281964  
H43      H      0.491630000000     0.048050000000     0.311870000000     0.0552947  
H44      H      0.557770000000     0.089130000000     0.259640000000     0.0539148  
H45      H      0.564060000000     0.963060000000     0.312180000000     0.0588539  
H46      H      0.505630000000     0.935880000000     0.249610000000     0.0583499  
H47      H      0.500680000000     0.050540000000     0.386980000000     0.0286172  
H48      H      0.467050000000     0.861160000000     0.162670000000     0.184034   
H49      H      0.499460000000     0.703560000000     0.003610000000     0.0349438  
H50      H      0.652450000000     0.984620000000     0.998760000000     0.0362798  
H51      H      0.651140000000     0.842580000000     0.949300000000     0.0547069  
H52      H      0.655870000000     0.910140000000     0.992370000000     0.0505168  
H53      H      0.503390000000     0.780450000000     0.992550000000     0.0605499  
H54      H      0.506740000000     0.837900000000     0.939900000000     0.0589193  
H55      H      0.644750000000     0.762480000000     0.959490000000     0.0281021  
H56      H      0.417050000000     0.871050000000     0.931120000000     0.186138   
H57      H      0.538020000000     0.237800000000     0.000890000000     0.0239486  
H58      H      0.453840000000     0.381770000000     0.068190000000     0.0257397  
H59      H      0.559050000000     0.283760000000     0.147590000000     0.0570866  
H60      H      0.457060000000     0.306620000000     0.066850000000     0.0501748  
H61      H      0.524230000000     0.302580000000     0.019230000000     0.0560496  
H62      H      0.602470000000     0.379450000000     0.126470000000     0.0632408  
H63      H      0.570710000000     0.216460000000     0.128390000000     0.0252845  
H64      H      0.669060000000     0.486520000000     0.176720000000     0.183117   
H65      H      0.924500000000     0.330250000000     0.578980000000     0.0348332  
H66      H      0.757860000000     0.105840000000     0.497990000000     0.0318211  
H67      H      0.839650000000     0.311050000000     0.441030000000     0.0571677  
H68      H      0.833790000000     0.184540000000     0.504510000000     0.053683   
H69      H      0.854880000000     0.251330000000     0.560250000000     0.0587683  
H70      H      0.752470000000     0.257460000000     0.469270000000     0.0587262  
H71      H      0.910810000000     0.390260000000     0.460450000000     0.0273561  
H72      H      0.605550000000     0.141940000000     0.412490000000     0.182357   
H73      H      0.387830000000     0.830010000000     0.545650000000     0.0315933  
H74      H      0.127190000000     0.715800000000     0.591410000000     0.0284599  
H75      H      0.299350000000     0.866440000000     0.646190000000     0.0577325  
H76      H      0.201360000000     0.796320000000     0.592130000000     0.0505776  
H77      H      0.305030000000     0.768350000000     0.562060000000     0.0576108  
H78      H      0.285440000000     0.734640000000     0.649210000000     0.0607124  
H79      H      0.383960000000     0.929240000000     0.628460000000     0.0323664  
H80      H      0.175440000000     0.576420000000     0.683690000000     0.18884    
H81      H      0.662830000000     0.428900000000     0.473190000000     0.0398783  
H82      H      0.896960000000     0.473930000000     0.501710000000     0.0438947  
H83      H      0.758430000000     0.464870000000     0.607500000000     0.0580393  
H84      H      0.811840000000     0.450900000000     0.489330000000     0.0569153  
H85      H      0.721590000000     0.399810000000     0.486530000000     0.0596155  
H86      H      0.784410000000     0.404900000000     0.617110000000     0.0550471  
H87      H      0.700380000000     0.492410000000     0.593410000000     0.0419073  
H88      H      0.863530000000     0.384570000000     0.691620000000     0.18697    
H89      H      0.178630000000     0.466010000000     0.477840000000     0.0234233  
H90      H      0.414910000000     0.504220000000     0.499450000000     0.0473537  
H91      H      0.284980000000     0.517590000000     0.606630000000     0.0615379  
H92      H      0.334600000000     0.495930000000     0.489870000000     0.0576272  
H93      H      0.243840000000     0.445320000000     0.488860000000     0.0549236  
H94      H      0.307620000000     0.453800000000     0.618310000000     0.0567811  
H95      H      0.219890000000     0.536910000000     0.595030000000     0.0440017  
H96      H      0.447320000000     0.498980000000     0.687250000000     0.180581   
H97      H      0.095020000000     0.520640000000     0.707510000000     0.034626   
H98      H      0.076470000000     0.652850000000     0.899920000000     0.0408491  
H99      H      0.016830000000     0.606720000000     0.761490000000     0.0587262  
H100     H      0.071590000000     0.648940000000     0.824300000000     0.0560998  
H101     H      0.106170000000     0.538560000000     0.779690000000     0.0594922  
H102     H      0.055430000000     0.505960000000     0.834440000000     0.0619064  
H103     H      0.010310000000     0.592010000000     0.686880000000     0.0315971  
H104     H      0.117720000000     0.493780000000     0.957880000000     0.178193   
H105     H      0.167240000000     0.619140000000     0.409280000000     0.0257746  
H106     H      0.067570000000     0.631860000000     0.202900000000     0.0313458  
H107     H      0.024210000000     0.501760000000     0.321630000000     0.0613688  
H108     H      0.089790000000     0.634430000000     0.275970000000     0.0562342  
H109     H      0.170650000000     0.628110000000     0.333310000000     0.058175   
H110     H      0.103460000000     0.507610000000     0.265430000000     0.0602198  
H111     H      0.020950000000     0.494670000000     0.396210000000     0.0248532  
H112     H      0.079500000000     0.431670000000     0.181340000000     0.188983   
H113     H      0.744920000000     0.196940000000     0.970490000000     0.0330869  
H114     H      0.840510000000     0.448090000000     0.040510000000     0.0416464  
H115     H      0.698800000000     0.324780000000     0.957370000000     0.0595566  
H116     H      0.767020000000     0.371970000000     0.021020000000     0.0594168  
H117     H      0.809980000000     0.282480000000     0.966670000000     0.0598062  
H118     H      0.837570000000     0.365810000000     0.913800000000     0.0619946  
H119     H      0.634570000000     0.239190000000     0.960080000000     0.0269636  
H120     H      0.965720000000     0.523140000000     0.897390000000     0.189202   
H121     H      0.379800000000     0.893460000000     0.019520000000     0.0345425  
H122     H      0.117690000000     0.764500000000     0.099430000000     0.0314501  
H123     H      0.283810000000     0.910630000000     0.126010000000     0.056097   
H124     H      0.191630000000     0.844020000000     0.088930000000     0.0590805  
H125     H      0.301030000000     0.823690000000     0.037570000000     0.0587687  
H126     H      0.282570000000     0.779500000000     0.114410000000     0.0614546  
H127     H      0.363840000000     0.980380000000     0.107730000000     0.0262526  
H128     H      0.177790000000     0.626380000000     0.169900000000     0.191752   
H129     H      0.914910000000     0.609710000000     0.129160000000     0.00336702 
H130     H      0.701890000000     0.597910000000     0.110480000000     0.0420667  
H131     H      0.764730000000     0.445960000000     0.123370000000     0.0592982  
H132     H      0.754000000000     0.575150000000     0.150450000000     0.0530454  
H133     H      0.835290000000     0.603680000000     0.124110000000     0.0557705  
H134     H      0.731000000000     0.472060000000     0.057750000000     0.0566882  
H135     H      0.847320000000     0.454240000000     0.130400000000     0.0412787  
H136     H      0.598320000000     0.438710000000     0.980870000000     0.176017   
H137     H      0.223790000000     0.638950000000     0.059570000000     0.0359266  
H138     H      0.359910000000     0.490410000000     0.125110000000     0.03563    
H139     H      0.208250000000     0.476480000000     0.080720000000     0.059143   
H140     H      0.282890000000     0.492140000000     0.128190000000     0.0554652  
H141     H      0.296490000000     0.633990000000     0.082140000000     0.0662771  
H142     H      0.333170000000     0.605840000000     0.035140000000     0.063504   
H143     H      0.135580000000     0.482670000000     0.060970000000     0.0346243  
H144     H      0.422350000000     0.656790000000     0.971190000000     0.182317   
H145     H      0.945890000000     0.828190000000     0.585300000000     0.0330807  
H146     H      0.667180000000     0.710520000000     0.597010000000     0.0265589  
H147     H      0.815130000000     0.840010000000     0.652220000000     0.0536066  
H148     H      0.745650000000     0.784100000000     0.609320000000     0.0485094  
H149     H      0.870350000000     0.753720000000     0.602600000000     0.0590673  
H150     H      0.811530000000     0.698240000000     0.651530000000     0.0600548  
H151     H      0.890630000000     0.913570000000     0.633700000000     0.0228992  
H152     H      0.767900000000     0.574440000000     0.652960000000     0.184555   
H153     H      0.240000000000     0.125390000000     0.489590000000     0.0234146  
H154     H      0.393290000000     0.369030000000     0.578140000000     0.0327989  
H155     H      0.230980000000     0.271340000000     0.521440000000     0.0577438  
H156     H      0.314370000000     0.296130000000     0.567160000000     0.0586979  
H157     H      0.310070000000     0.206800000000     0.474390000000     0.0577463  
H158     H      0.341250000000     0.299980000000     0.437890000000     0.0570326  
H159     H      0.162840000000     0.190770000000     0.536620000000     0.0309752  
H160     H      0.433590000000     0.397740000000     0.378370000000     0.182457   
H161     H      0.731940000000     0.067350000000     0.571640000000     0.0269859  
H162     H      0.856610000000     0.906160000000     0.538080000000     0.0345766  
H163     H      0.717980000000     0.905880000000     0.564530000000     0.0513908  
H164     H      0.789920000000     0.909950000000     0.566200000000     0.0472654  
H165     H      0.804420000000     0.063860000000     0.554990000000     0.0547952  
H166     H      0.835810000000     0.047620000000     0.501730000000     0.0588355  
H167     H      0.649620000000     0.911630000000     0.585500000000     0.0238041  
H168     H      0.940150000000     0.126100000000     0.449870000000     0.185397   
H169     H      0.434560000000     0.095350000000     0.506190000000     0.0291207  
H170     H      0.151600000000     0.929350000000     0.547640000000     0.0266077  
H171     H      0.296480000000     0.931090000000     0.541510000000     0.0538359  
H172     H      0.225150000000     0.936020000000     0.522590000000     0.0479594  
H173     H      0.357350000000     0.087090000000     0.527550000000     0.0540751  
H174     H      0.314720000000     0.065340000000     0.594240000000     0.0481847  
H175     H      0.372640000000     0.940560000000     0.518700000000     0.0313744  
H176     H      0.295050000000     0.128800000000     0.604530000000     0.166338   
H177     H      0.948370000000     0.805050000000     0.478330000000     0.0328044  
H178     H      0.140110000000     0.717240000000     0.501910000000     0.0265795  
H179     H      0.116140000000     0.839950000000     0.449310000000     0.0518036  
H180     H      0.126710000000     0.784780000000     0.489730000000     0.0484205  
H181     H      0.962040000000     0.737060000000     0.470930000000     0.0572348  
H182     H      0.981770000000     0.688330000000     0.434610000000     0.0586404  
H183     H      0.101630000000     0.906210000000     0.459860000000     0.0194285  
H184     H      0.976400000000     0.545130000000     0.415060000000     0.188868   
H185     H      0.117260000000     0.181030000000     0.641880000000     0.028362   
H186     H      0.108870000000     0.395370000000     0.519980000000     0.023365   
H187     H      0.037980000000     0.243500000000     0.539280000000     0.0569676  
H188     H      0.116700000000     0.324200000000     0.526810000000     0.0524581  
H189     H      0.138040000000     0.266070000000     0.645400000000     0.059704   
H190     H      0.092080000000     0.314800000000     0.657140000000     0.0564898  
H191     H      0.018440000000     0.159720000000     0.536370000000     0.0346014  
H192     H      0.103810000000     0.412300000000     0.720560000000     0.184924   
H193     H      0.953650000000     0.002930000000     0.686520000000     0.0238495  
H194     H      0.061130000000     0.000830000000     0.915850000000     0.0370407  
H195     H      0.081850000000     0.001260000000     0.782750000000     0.0589472  
H196     H      0.046640000000     0.971810000000     0.846210000000     0.0574252  
H197     H      0.945790000000     0.004320000000     0.760550000000     0.0582176  
H198     H      0.988790000000     0.066260000000     0.809450000000     0.0588837  
H199     H      0.086840000000     0.997190000000     0.709190000000     0.0371862  
H200     H      0.953900000000     0.131940000000     0.870330000000     0.186718   
H201     H      0.975160000000     0.993370000000     0.395280000000     0.0444102  
H202     H      0.997230000000     0.991070000000     0.187310000000     0.0370976  
H203     H      0.136990000000     0.091580000000     0.331800000000     0.0563018  
H204     H      0.996370000000     0.982070000000     0.261720000000     0.0562333  
H205     H      0.976830000000     0.008090000000     0.320650000000     0.0624262  
H206     H      0.125890000000     0.125440000000     0.272590000000     0.0590866  
H207     H      0.133520000000     0.079390000000     0.405560000000     0.0295811  
H208     H      0.194840000000     0.157850000000     0.147990000000     0.181466   
H209     H      0.739900000000     0.715870000000     0.080320000000     0.0235454  
H210     H      0.868430000000     0.986340000000     0.995340000000     0.0393348  
H211     H      0.720600000000     0.850000000000     0.016370000000     0.0507473  
H212     H      0.792660000000     0.917870000000     0.016100000000     0.0503791  
H213     H      0.810330000000     0.783800000000     0.048240000000     0.0529238  
H214     H      0.845990000000     0.821850000000     0.987200000000     0.0571472  
H215     H      0.653550000000     0.784380000000     0.052640000000     0.0277058  
H216     H      0.956630000000     0.843270000000     0.951910000000     0.185599   
H217     H      0.378030000000     0.497580000000     0.007230000000     0.0388042  
H218     H      0.210390000000     0.227540000000     0.082940000000     0.0300206  
H219     H      0.347490000000     0.329220000000     0.005960000000     0.0546824  
H220     H      0.292470000000     0.295790000000     0.068480000000     0.0533055  
H221     H      0.296090000000     0.430360000000     0.020840000000     0.0577275  
H222     H      0.226110000000     0.360880000000     0.987740000000     0.0620493  
H223     H      0.429700000000     0.397900000000     0.993140000000     0.024414   
H224     H      0.105090000000     0.322750000000     0.955150000000     0.184584   
H225     H      0.716550000000     0.145060000000     0.085580000000     0.0348333  
H226     H      0.852480000000     0.001220000000     0.079900000000     0.0355221  
H227     H      0.712920000000     0.991640000000     0.127480000000     0.0564338  
H228     H      0.776820000000     0.002100000000     0.081450000000     0.0512748  
H229     H      0.794620000000     0.146890000000     0.102160000000     0.0577576  
H230     H      0.849620000000     0.130440000000     0.156080000000     0.0598795  
H231     H      0.636180000000     0.990940000000     0.110430000000     0.039238   
H232     H      0.972340000000     0.202420000000     0.191540000000     0.187241   
H233     H      0.194560000000     0.104120000000     0.080010000000     0.0367646  
H234     H      0.424030000000     0.143500000000     0.065410000000     0.0253226  
H235     H      0.276970000000     0.159280000000     0.946960000000     0.0573045  
H236     H      0.359870000000     0.163400000000     0.063080000000     0.0502926  
H237     H      0.271210000000     0.105600000000     0.073040000000     0.0550719  
H238     H      0.300920000000     0.088860000000     0.947690000000     0.058079   
H239     H      0.198500000000     0.157480000000     0.955310000000     0.0305946  
H240     H      0.365850000000     0.994650000000     0.932480000000     0.189362   
H241     H      0.074800000000     0.947250000000     0.096560000000     0.0306586  
H242     H      0.942000000000     0.668970000000     0.038300000000     0.0343478  
H243     H      0.922270000000     0.800870000000     0.046360000000     0.0575923  
H244     H      0.932300000000     0.735150000000     0.057370000000     0.0502752  
H245     H      0.079700000000     0.877390000000     0.077600000000     0.0540848  
H246     H      0.079730000000     0.837250000000     0.019650000000     0.0567242  
H247     H      0.918730000000     0.871350000000     0.067680000000     0.0332561  
H248     H      0.174790000000     0.821010000000     0.990000000000     0.185541   
H249     H      0.955720000000     0.178690000000     0.087020000000     0.0355652  
H250     H      0.008810000000     0.415720000000     0.014520000000     0.00916249 
H251     H      0.937570000000     0.255520000000     0.956090000000     0.0587682  
H252     H      0.990590000000     0.338600000000     0.989010000000     0.0636235  
H253     H      0.923430000000     0.232760000000     0.088560000000     0.0667897  
H254     H      0.866450000000     0.264930000000     0.067170000000     0.0563815  
H255     H      0.967720000000     0.197540000000     0.955730000000     0.030709   
H256     H      0.828340000000     0.308850000000     0.145700000000     0.186399   
N1       N      0.598760000000     0.596220000000     0.900350000000    -0.189346   
N2       N      0.576400000000     0.561110000000     0.684470000000    -0.200047   
N3       N      0.566960000000     0.582450000000     0.185780000000    -0.185863   
N4       N      0.600900000000     0.551430000000     0.401750000000    -0.200959   
N5       N      0.602910000000     0.667810000000     0.475290000000    -0.187822   
N6       N      0.577320000000     0.875390000000     0.483950000000    -0.20213    
N7       N      0.565740000000     0.366620000000     0.578550000000    -0.185891   
N8       N      0.550300000000     0.140650000000     0.601500000000    -0.185829   
N9       N      0.544130000000     0.048970000000     0.884410000000    -0.187641   
N10      N      0.555630000000     0.002420000000     0.675320000000    -0.20384    
N11      N      0.533920000000     0.022880000000     0.173460000000    -0.191741   
N12      N      0.538590000000     0.009790000000     0.392570000000    -0.204953   
N13      N      0.576960000000     0.953760000000     0.975490000000    -0.179137   
N14      N      0.571360000000     0.726570000000     0.982050000000    -0.197791   
N15      N      0.527290000000     0.424540000000     0.095130000000    -0.184527   
N16      N      0.554240000000     0.221300000000     0.063430000000    -0.206524   
N17      N      0.710980000000     0.136040000000     0.482350000000    -0.171546   
N18      N      0.923030000000     0.365960000000     0.520900000000    -0.204296   
N19      N      0.164480000000     0.677950000000     0.615730000000    -0.188009   
N20      N      0.392530000000     0.883680000000     0.586830000000    -0.202767   
N21      N      0.892260000000     0.457510000000     0.567360000000    -0.188039   
N22      N      0.679020000000     0.464460000000     0.531490000000    -0.203771   
N23      N      0.410380000000     0.486850000000     0.564980000000    -0.186604   
N24      N      0.194810000000     0.503420000000     0.535270000000    -0.203548   
N25      N      0.070490000000     0.582770000000     0.910610000000    -0.196408   
N26      N      0.052100000000     0.555260000000     0.691590000000    -0.199787   
N27      N      0.070060000000     0.566790000000     0.191170000000    -0.181646   
N28      N      0.093930000000     0.556500000000     0.408310000000    -0.202259   
N29      N      0.883050000000     0.449220000000     0.990450000000    -0.187749   
N30      N      0.685120000000     0.211860000000     0.966580000000    -0.185176   
N31      N      0.157230000000     0.725720000000     0.110470000000    -0.19471    
N32      N      0.378510000000     0.941620000000     0.063330000000    -0.199284   
N33      N      0.686540000000     0.549710000000     0.059620000000    -0.193753   
N34      N      0.885790000000     0.532450000000     0.128960000000    -0.209375   
N35      N      0.391500000000     0.548280000000     0.079510000000    -0.177767   
N36      N      0.174760000000     0.561340000000     0.057650000000    -0.214016   
N37      N      0.694370000000     0.661570000000     0.613470000000    -0.18987    
N38      N      0.922430000000     0.876060000000     0.606180000000    -0.203352   
N39      N      0.414380000000     0.376970000000     0.514940000000    -0.190136   
N40      N      0.197910000000     0.152550000000     0.516210000000    -0.210845   
N41      N      0.888190000000     0.976590000000     0.507600000000    -0.190453   
N42      N      0.684810000000     0.989750000000     0.577560000000    -0.20583    
N43      N      0.189340000000     0.995860000000     0.582400000000    -0.193572   
N44      N      0.409540000000     0.018810000000     0.512410000000    -0.205136   
N45      N      0.067590000000     0.662640000000     0.479150000000    -0.188922   
N46      N      0.024300000000     0.860260000000     0.471240000000    -0.19475    
N47      N      0.094440000000     0.396480000000     0.584030000000    -0.19102    
N48      N      0.066800000000     0.164510000000     0.588590000000    -0.208787   
N49      N      0.032340000000     0.049360000000     0.903950000000    -0.18787    
N50      N      0.022020000000     0.002320000000     0.692560000000    -0.20679    
N51      N      0.061300000000     0.063390000000     0.186450000000    -0.191802   
N52      N      0.054160000000     0.033970000000     0.405620000000    -0.204661   
N53      N      0.904750000000     0.945500000000     0.986630000000    -0.185625   
N54      N      0.691170000000     0.744420000000     0.067460000000    -0.212429   
N55      N      0.171170000000     0.254200000000     0.043270000000    -0.193631   
N56      N      0.410520000000     0.453030000000     0.001120000000    -0.204778   
N57      N      0.897220000000     0.066420000000     0.115570000000    -0.187633   
N58      N      0.670600000000     0.067600000000     0.095260000000    -0.195224   
N59      N      0.400620000000     0.103360000000     0.008420000000    -0.190526   
N60      N      0.190170000000     0.129200000000     0.017730000000    -0.196532   
N61      N      0.018410000000     0.713050000000     0.022230000000    -0.184971   
N62      N      0.996720000000     0.915120000000     0.081910000000    -0.185187   
N63      N      0.950790000000     0.386130000000     0.058180000000    -0.182275   
N64      N      0.965880000000     0.186030000000     0.021580000000    -0.203546   
O1       O      0.021690000000     0.171830000000     0.057900000000    -0.455029   
O2       O      0.988680000000     0.980060000000     0.002600000000    -0.418166   
O3       O      0.017600000000     0.081510000000     0.959690000000    -0.440146   
O4       O      0.939170000000     0.036580000000     0.083630000000    -0.43867    
O5       O      0.067040000000     0.053720000000     0.969310000000    -0.418876   
O6       O      0.983190000000     0.106480000000     0.114120000000    -0.429292   
O7       O      0.954130000000     0.019170000000     0.015580000000    -0.436905   
O8       O      0.999490000000     0.143990000000     0.994000000000    -0.416128   
O9       O      0.076080000000     0.113930000000     0.129920000000    -0.461581   
O10      O      0.115080000000     0.081790000000     0.044690000000    -0.410386   
O11      O      0.095600000000     0.198740000000     0.015860000000    -0.457886   
O12      O      0.957490000000     0.961150000000     0.080580000000    -0.38934    
O13      O      0.039170000000     0.998800000000     0.078450000000    -0.448175   
O14      O      0.117200000000     0.181480000000     0.075690000000    -0.44248    
O15      O      0.016960000000     0.039300000000     0.124270000000    -0.425361   
O16      O      0.120960000000     0.134420000000     0.994100000000    -0.393444   
O17      O      0.034040000000     0.091070000000     0.045800000000    -0.588517   
O18      O      0.094430000000     0.032770000000     0.466350000000    -0.466703   
O19      O      0.027340000000     0.090110000000     0.557580000000    -0.453047   
O20      O      0.938430000000     0.943330000000     0.509630000000    -0.387217   
O21      O      0.136540000000     0.108410000000     0.559740000000    -0.491405   
O22      O      0.971670000000     0.019950000000     0.511270000000    -0.431343   
O23      O      0.160230000000     0.068770000000     0.523990000000    -0.432725   
O24      O      0.076610000000     0.100360000000     0.610770000000    -0.454989   
O25      O      0.014910000000     0.986720000000     0.462410000000    -0.416427   
O26      O      0.109920000000     0.971770000000     0.562040000000    -0.459374   
O27      O      0.952800000000     0.954320000000     0.582420000000    -0.452279   
O28      O      0.977130000000     0.893610000000     0.487970000000    -0.391713   
O29      O      0.069060000000     0.012570000000     0.637950000000    -0.464215   
O30      O      0.005980000000     0.023850000000     0.627180000000    -0.443867   
O31      O      0.057650000000     0.938020000000     0.494870000000    -0.505543   
O32      O      0.148940000000     0.036380000000     0.596720000000    -0.441822   
O33      O      0.990710000000     0.915820000000     0.566540000000    -0.425694   
O34      O      0.050170000000     0.015820000000     0.548900000000    -0.543604   
O35      O      0.967450000000     0.485080000000     0.996820000000    -0.462603   
O36      O      0.993100000000     0.634320000000     0.040640000000    -0.442956   
O37      O      0.945130000000     0.511150000000     0.128160000000    -0.40042    
O38      O      0.080260000000     0.622230000000     0.971860000000    -0.446508   
O39      O      0.947460000000     0.564350000000     0.085230000000    -0.484601   
O40      O      0.052780000000     0.544600000000     0.973740000000    -0.483315   
O41      O      0.068850000000     0.678500000000     0.023660000000    -0.405428   
O42      O      0.929960000000     0.488470000000     0.048430000000    -0.427056   
O43      O      0.092500000000     0.526380000000     0.042710000000    -0.492959   
O44      O      0.030980000000     0.590200000000     0.140220000000    -0.444784   
O45      O      0.950600000000     0.438670000000     0.106610000000    -0.340614   
O46      O      0.122320000000     0.649730000000     0.085070000000    -0.453466   
O47      O      0.073380000000     0.674130000000     0.098760000000    -0.448371   
O48      O      0.011730000000     0.466330000000     0.067440000000    -0.534411   
O49      O      0.137500000000     0.604630000000     0.033310000000    -0.462007   
O50      O      0.036330000000     0.524920000000     0.129840000000    -0.396226   
O51      O      0.031250000000     0.571320000000     0.053960000000    -0.522334   
O52      O      0.984190000000     0.444400000000     0.505510000000    -0.433909   
O53      O      0.033230000000     0.585970000000     0.507500000000    -0.42932    
O54      O      0.965460000000     0.472020000000     0.603010000000    -0.411249   
O55      O      0.128870000000     0.572900000000     0.475280000000    -0.424733   
O56      O      0.968900000000     0.514510000000     0.547540000000    -0.452061   
O57      O      0.050920000000     0.519050000000     0.465720000000    -0.451014   
O58      O      0.112520000000     0.631800000000     0.514460000000    -0.437655   
O59      O      0.985050000000     0.414460000000     0.567390000000    -0.440553   
O60      O      0.126220000000     0.499470000000     0.499690000000    -0.429274   
O61      O      0.021020000000     0.554680000000     0.624380000000    -0.422554   
O62      O      0.082000000000     0.459040000000     0.601560000000    -0.422234   
O63      O      0.140980000000     0.603060000000     0.591170000000    -0.429153   
O64      O      0.088180000000     0.627720000000     0.583310000000    -0.433118   
O65      O      0.060030000000     0.429530000000     0.539340000000    -0.462642   
O66      O      0.158190000000     0.545690000000     0.553310000000    -0.448399   
O67      O      0.065160000000     0.520150000000     0.637690000000    -0.442906   
O68      O      0.060990000000     0.524600000000     0.551310000000    -0.530789   
O69      O      0.460300000000     0.097500000000     0.048310000000    -0.467871   
O70      O      0.609880000000     0.033210000000     0.999040000000    -0.37214    
O71      O      0.511820000000     0.070240000000     0.936230000000    -0.437726   
O72      O      0.453080000000     0.971200000000     0.033770000000    -0.432702   
O73      O      0.580420000000     0.073820000000     0.949160000000    -0.434362   
O74      O      0.446600000000     0.016330000000     0.080060000000    -0.424972   
O75      O      0.530450000000     0.986250000000     0.994400000000    -0.42966    
O76      O      0.456790000000     0.085440000000     0.982470000000    -0.407483   
O77      O      0.546980000000     0.072010000000     0.115770000000    -0.4615     
O78      O      0.660840000000     0.132370000000     0.987040000000    -0.408735   
O79      O      0.539630000000     0.164340000000     0.016020000000    -0.466538   
O80      O      0.589750000000     0.022390000000     0.069980000000    -0.422743   
O81      O      0.628490000000     0.102210000000     0.061230000000    -0.42806    
O82      O      0.556380000000     0.150670000000     0.079600000000    -0.441624   
O83      O      0.507610000000     0.994970000000     0.106860000000    -0.436111   
O84      O      0.602940000000     0.153430000000     0.974660000000    -0.458381   
O85      O      0.532000000000     0.065150000000     0.027990000000    -0.565561   
O86      O      0.462960000000     0.991340000000     0.523600000000    -0.438161   
O87      O      0.607180000000     0.956170000000     0.498790000000    -0.406333   
O88      O      0.539780000000     0.044940000000     0.452950000000    -0.41865    
O89      O      0.464700000000     0.903450000000     0.557470000000    -0.450074   
O90      O      0.576650000000     0.003060000000     0.453340000000    -0.442601   
O91      O      0.463690000000     0.959390000000     0.593270000000    -0.395723   
O92      O      0.531130000000     0.901820000000     0.513730000000    -0.440817   
O93      O      0.493900000000     0.064390000000     0.507410000000    -0.41602    
O94      O      0.565920000000     0.029640000000     0.607900000000    -0.429197   
O95      O      0.666940000000     0.051690000000     0.485940000000    -0.419786   
O96      O      0.574850000000     0.098920000000     0.561830000000    -0.411427   
O97      O      0.600850000000     0.949740000000     0.575600000000    -0.468684   
O98      O      0.639750000000     0.027270000000     0.561380000000    -0.445859   
O99      O      0.500970000000     0.057560000000     0.589090000000    -0.401579   
O100     O      0.535440000000     0.952010000000     0.620020000000    -0.449652   
O101     O      0.628680000000     0.092150000000     0.497290000000    -0.448921   
O102     O      0.543360000000     0.990640000000     0.532410000000    -0.641849   
O103     O      0.493970000000     0.483230000000     0.002190000000    -0.451588   
O104     O      0.533820000000     0.652060000000     0.015250000000    -0.413678   
O105     O      0.442380000000     0.515500000000     0.094470000000    -0.389857   
O106     O      0.631860000000     0.621420000000     0.967050000000    -0.421997   
O107     O      0.475450000000     0.591710000000     0.073400000000    -0.469048   
O108     O      0.560540000000     0.554130000000     0.958450000000    -0.463255   
O109     O      0.611100000000     0.683400000000     0.999960000000    -0.42537    
O110     O      0.469020000000     0.531490000000     0.016800000000    -0.418697   
O111     O      0.634100000000     0.549760000000     0.005800000000    -0.44474    
O112     O      0.559870000000     0.625570000000     0.128140000000    -0.423714   
O113     O      0.496950000000     0.476430000000     0.077110000000    -0.382843   
O114     O      0.648350000000     0.662910000000     0.079180000000    -0.453703   
O115     O      0.608030000000     0.698360000000     0.073400000000    -0.420356   
O116     O      0.569540000000     0.494420000000     0.058540000000    -0.441516   
O117     O      0.665970000000     0.608310000000     0.047880000000    -0.483776   
O118     O      0.535640000000     0.549730000000     0.121850000000    -0.436646   
O119     O      0.567830000000     0.584070000000     0.042870000000    -0.534521   
O120     O      0.485970000000     0.447670000000     0.498790000000    -0.43125    
O121     O      0.559560000000     0.590230000000     0.501170000000    -0.431035   
O122     O      0.477370000000     0.483860000000     0.598040000000    -0.407041   
O123     O      0.638890000000     0.556590000000     0.467170000000    -0.426462   
O124     O      0.488400000000     0.527210000000     0.541730000000    -0.448104   
O125     O      0.559000000000     0.512710000000     0.459290000000    -0.454974   
O126     O      0.638910000000     0.625910000000     0.507570000000    -0.430948   
O127     O      0.479830000000     0.416690000000     0.561150000000    -0.446876   
O128     O      0.620450000000     0.475710000000     0.492620000000    -0.423864   
O129     O      0.545420000000     0.561450000000     0.617720000000    -0.426383   
O130     O      0.574490000000     0.441170000000     0.594690000000    -0.422289   
O131     O      0.659700000000     0.587790000000     0.582900000000    -0.438041   
O132     O      0.618530000000     0.625490000000     0.577100000000    -0.435815   
O133     O      0.546450000000     0.412940000000     0.532980000000    -0.438978   
O134     O      0.659650000000     0.521880000000     0.545010000000    -0.461014   
O135     O      0.575850000000     0.514020000000     0.632710000000    -0.432104   
O136     O      0.571040000000     0.518670000000     0.544840000000    -0.5301     
O137     O      0.728470000000     0.687450000000     0.889390000000    -0.331024   
O138     O      0.701570000000     0.618800000000     0.927290000000    -0.215646   
O139     O      0.468340000000     0.485610000000     0.172910000000    -0.313074   
O140     O      0.516760000000     0.454230000000     0.189820000000    -0.227212   
O141     O      0.524200000000     0.586850000000     0.421880000000    -0.314434   
O142     O      0.476580000000     0.615760000000     0.439390000000    -0.238709   
O143     O      0.488540000000     0.297880000000     0.491890000000    -0.331903   
O144     O      0.564580000000     0.361030000000     0.482930000000    -0.228311   
O145     O      0.661670000000     0.102910000000     0.903720000000    -0.316837   
O146     O      0.638380000000     0.023840000000     0.904330000000    -0.228671   
O147     O      0.473040000000     0.889820000000     0.177100000000    -0.333594   
O148     O      0.540510000000     0.939340000000     0.142460000000    -0.237175   
O149     O      0.446870000000     0.872360000000     0.943050000000    -0.334293   
O150     O      0.495710000000     0.947810000000     0.918700000000    -0.216354   
O151     O      0.644180000000     0.460920000000     0.159110000000    -0.333613   
O152     O      0.607000000000     0.503320000000     0.141030000000    -0.214958   
O153     O      0.634720000000     0.142810000000     0.425540000000    -0.322055   
O154     O      0.656240000000     0.209930000000     0.460640000000    -0.239483   
O155     O      0.172870000000     0.603560000000     0.671420000000    -0.315032   
O156     O      0.251880000000     0.643330000000     0.655250000000    -0.238097   
O157     O      0.854260000000     0.387760000000     0.662940000000    -0.331073   
O158     O      0.907560000000     0.468000000000     0.660560000000    -0.221437   
O159     O      0.436330000000     0.501830000000     0.659060000000    -0.31899    
O160     O      0.370430000000     0.426620000000     0.660310000000    -0.237082   
O161     O      0.112150000000     0.517840000000     0.942770000000    -0.324365   
O162     O      0.046430000000     0.461340000000     0.906600000000    -0.231775   
O163     O      0.074930000000     0.454310000000     0.196860000000    -0.327248   
O164     O      0.113550000000     0.515190000000     0.151110000000    -0.215103   
O165     O      0.942240000000     0.505190000000     0.918540000000    -0.313326   
O166     O      0.926810000000     0.433090000000     0.896710000000    -0.227018   
O167     O      0.174040000000     0.652970000000     0.157910000000    -0.321936   
O168     O      0.248830000000     0.690120000000     0.132080000000    -0.242383   
O169     O      0.615790000000     0.457910000000     0.005120000000    -0.326071   
O170     O      0.690100000000     0.481370000000     0.981680000000    -0.228041   
O171     O      0.408660000000     0.642890000000     0.997810000000    -0.33395    
O172     O      0.433770000000     0.588990000000     0.998100000000    -0.204333   
O173     O      0.769500000000     0.604770000000     0.644030000000    -0.334064   
O174     O      0.691600000000     0.577950000000     0.659590000000    -0.217764   
O175     O      0.413490000000     0.385720000000     0.402420000000    -0.333442   
O176     O      0.473730000000     0.384830000000     0.442490000000    -0.247335   
O177     O      0.919500000000     0.099970000000     0.468770000000    -0.336881   
O178     O      0.934210000000     0.046450000000     0.440230000000    -0.222124   
O179     O      0.275050000000     0.114120000000     0.628400000000    -0.31759    
O180     O      0.215420000000     0.049990000000     0.660850000000    -0.211008   
O181     O      0.000430000000     0.576610000000     0.426430000000    -0.316957   
O182     O      0.942520000000     0.594550000000     0.439160000000    -0.238807   
O183     O      0.111380000000     0.402700000000     0.695310000000    -0.331066   
O184     O      0.042660000000     0.392720000000     0.661360000000    -0.243634   
O185     O      0.960150000000     0.105470000000     0.866670000000    -0.329584   
O186     O      0.035460000000     0.145340000000     0.897810000000    -0.2485     
O187     O      0.165010000000     0.131970000000     0.160020000000    -0.312739   
O188     O      0.166370000000     0.180180000000     0.208530000000    -0.235179   
O189     O      0.933200000000     0.849150000000     0.964920000000    -0.338825   
O190     O      0.962960000000     0.923200000000     0.935940000000    -0.226645   
O191     O      0.132600000000     0.318740000000     0.965420000000    -0.329869   
O192     O      0.097030000000     0.283890000000     0.024700000000    -0.224186   
O193     O      0.945890000000     0.180110000000     0.172750000000    -0.337327   
O194     O      0.961230000000     0.119670000000     0.188010000000    -0.223322   
O195     O      0.368050000000     0.016900000000     0.953080000000    -0.31425    
O196     O      0.356060000000     0.064010000000     0.905900000000    -0.233751   
O197     O      0.144720000000     0.812360000000     0.003610000000    -0.342815   
O198     O      0.098700000000     0.747070000000     0.964490000000    -0.224856   
O199     O      0.852740000000     0.310190000000     0.127950000000    -0.330516   
O200     O      0.857440000000     0.373290000000     0.090740000000    -0.223871   


