data_structure

_audit_creation_method RASPA-1.0
_audit_creation_date 2023-6-4
_audit_author_name 'Poobodin Mano'

_cell_length_a    22.8291
_cell_length_b    23.347
_cell_length_c    23.9558
_cell_angle_alpha 87.137
_cell_angle_beta  93.815
_cell_angle_gamma 120.433
_cell_volume      10982.7

_symmetry_cell_setting          triclinic
_symmetry_space_group_name_Hall 'P 1'
_symmetry_space_group_name_H-M  'P 1'
_symmetry_Int_Tables_number     1

_symmetry_equiv_pos_as_xyz 'x,y,z'

loop_
_atom_site_label
_atom_site_type_symbol
_atom_site_fract_x
_atom_site_fract_y
_atom_site_fract_z
_atom_site_charge
C1       C      0.048760000000     0.177710000000     0.983860000000     0.481833   
C2       C      0.908070000000     0.925020000000     0.000600000000     0.483419   
C3       C      0.070010000000     0.086350000000     0.888570000000     0.474994   
C4       C      0.958040000000     0.094340000000     0.127540000000     0.415375   
C5       C      0.087530000000     0.054320000000     0.171410000000     0.489459   
C6       C      0.202840000000     0.067940000000     0.951860000000     0.480081   
C7       C      0.187900000000     0.211270000000     0.087360000000     0.454155   
C8       C      0.044150000000     0.900730000000     0.042210000000     0.508421   
C9       C      0.091730000000     0.029110000000     0.398990000000     0.381894   
C10      C      0.129830000000     0.185290000000     0.615940000000     0.471265   
C11      C      0.971630000000     0.080030000000     0.556550000000     0.48979    
C12      C      0.226540000000     0.159950000000     0.477780000000     0.471034   
C13      C      0.232010000000     0.031430000000     0.561150000000     0.493752   
C14      C      0.939520000000     0.920580000000     0.593320000000     0.432014   
C15      C      0.029790000000     0.900730000000     0.501030000000     0.460099   
C16      C      0.150470000000     0.064770000000     0.699650000000     0.47411    
C17      C      0.942270000000     0.403010000000     0.989560000000     0.453672   
C18      C      0.054800000000     0.677550000000     0.058870000000     0.378898   
C19      C      0.940060000000     0.526430000000     0.095640000000     0.456958   
C20      C      0.123460000000     0.566880000000     0.920130000000     0.477957   
C21      C      0.231330000000     0.562480000000     0.049040000000     0.476883   
C22      C      0.069840000000     0.517330000000     0.189840000000     0.439483   
C23      C      0.041400000000     0.360330000000     0.068620000000     0.466574   
C24      C      0.213330000000     0.712090000000     0.078290000000     0.366081   
C25      C      0.924160000000     0.385570000000     0.514150000000     0.532665   
C26      C      0.065290000000     0.693990000000     0.533110000000     0.377967   
C27      C      0.932170000000     0.530350000000     0.583300000000     0.459537   
C28      C      0.096790000000     0.557570000000     0.416380000000     0.454675   
C29      C      0.213910000000     0.558570000000     0.525730000000     0.466104   
C30      C      0.073910000000     0.559090000000     0.690170000000     0.460181   
C31      C      0.075120000000     0.389060000000     0.592130000000     0.514992   
C32      C      0.214110000000     0.709650000000     0.565590000000     0.373499   
C33      C      0.447380000000     0.091070000000     0.972160000000     0.436392   
C34      C      0.571940000000     0.922070000000     0.029960000000     0.483137   
C35      C      0.573450000000     0.093750000000     0.904140000000     0.486299   
C36      C      0.446100000000     0.924620000000     0.099290000000     0.443554   
C37      C      0.532030000000     0.064010000000     0.179550000000     0.459697   
C38      C      0.719720000000     0.192830000000     0.989460000000     0.464658   
C39      C      0.536280000000     0.179380000000     0.099130000000     0.446198   
C40      C      0.721570000000     0.075890000000     0.083490000000     0.470924   
C41      C      0.447320000000     0.085560000000     0.486440000000     0.442996   
C42      C      0.608800000000     0.931210000000     0.509390000000     0.479459   
C43      C      0.553550000000     0.052450000000     0.403030000000     0.491789   
C44      C      0.453830000000     0.907090000000     0.597190000000     0.494391   
C45      C      0.567890000000     0.058320000000     0.677370000000     0.481179   
C46      C      0.673750000000     0.218540000000     0.450210000000     0.410404   
C47      C      0.566880000000     0.179000000000     0.597760000000     0.439242   
C48      C      0.734910000000     0.085970000000     0.569100000000     0.515757   
C49      C      0.419570000000     0.411250000000     0.056590000000     0.471609   
C50      C      0.550000000000     0.673370000000     0.018110000000     0.430362   
C51      C      0.454820000000     0.597770000000     0.158550000000     0.444039   
C52      C      0.587580000000     0.545650000000     0.942130000000     0.468152   
C53      C      0.711540000000     0.547980000000     0.054160000000     0.511848   
C54      C      0.595640000000     0.575890000000     0.219520000000     0.489404   
C55      C      0.550080000000     0.398730000000     0.136520000000     0.481128   
C56      C      0.690410000000     0.724820000000     0.104080000000     0.429172   
C57      C      0.440490000000     0.374560000000     0.508970000000     0.510685   
C58      C      0.619890000000     0.702350000000     0.515580000000     0.37223    
C59      C      0.445910000000     0.555840000000     0.593210000000     0.447611   
C60      C      0.595090000000     0.545930000000     0.438360000000     0.473174   
C61      C      0.723540000000     0.563280000000     0.550400000000     0.469568   
C62      C      0.554830000000     0.534100000000     0.707430000000     0.472895   
C63      C      0.547840000000     0.378530000000     0.635320000000     0.528824   
C64      C      0.691880000000     0.696960000000     0.633580000000     0.37081    
C65      C      0.639390000000     0.585770000000     0.850430000000    -0.00970618 
C66      C      0.528610000000     0.479500000000     0.858910000000    -0.0338858  
C67      C      0.616250000000     0.597750000000     0.791460000000    -0.0105742  
C68      C      0.503460000000     0.491440000000     0.800300000000     0.095655   
C69      C      0.588560000000     0.501960000000     0.344910000000    -0.00652681 
C70      C      0.594480000000     0.612340000000     0.354610000000    -0.0340133  
C71      C      0.638180000000     0.532560000000     0.297770000000    -0.0109305  
C72      C      0.645960000000     0.641230000000     0.307580000000     0.0956176  
C73      C      0.653880000000     0.872130000000     0.456300000000    -0.00819645 
C74      C      0.540700000000     0.809660000000     0.496130000000    -0.0270565  
C75      C      0.672950000000     0.820840000000     0.482310000000    -0.00825199 
C76      C      0.557790000000     0.760560000000     0.527540000000     0.0912918  
C77      C      0.629170000000     0.298110000000     0.620150000000    -0.0107704  
C78      C      0.504600000000     0.223370000000     0.643490000000    -0.0387002  
C79      C      0.632620000000     0.346140000000     0.663910000000    -0.008223   
C80      C      0.515170000000     0.272930000000     0.688920000000     0.0931257  
C81      C      0.539330000000     0.110260000000     0.750520000000    -0.00666677 
C82      C      0.626180000000     0.073300000000     0.769000000000    -0.0338795  
C83      C      0.564540000000     0.138570000000     0.810010000000    -0.00252136 
C84      C      0.592910000000     0.045620000000     0.824570000000     0.106161   
C85      C      0.464990000000     0.044730000000     0.262180000000    -0.00954274 
C86      C      0.569780000000     0.031370000000     0.265940000000    -0.0233809  
C87      C      0.480430000000     0.059190000000     0.325410000000    -0.000802112
C88      C      0.537060000000     0.990030000000     0.318290000000     0.091699   
C89      C      0.516760000000     0.745580000000     0.058460000000    -0.0182028  
C90      C      0.589220000000     0.784560000000     0.973810000000    -0.0330931  
C91      C      0.503580000000     0.803560000000     0.049400000000    -0.00432426 
C92      C      0.569130000000     0.839420000000     0.964710000000     0.0971277  
C93      C      0.473730000000     0.222950000000     0.146270000000    -0.0124121  
C94      C      0.599320000000     0.268270000000     0.167820000000    -0.0391839  
C95      C      0.488710000000     0.284920000000     0.178980000000    -0.00635314 
C96      C      0.614130000000     0.340450000000     0.161620000000     0.0948055  
C97      C      0.748510000000     0.338170000000     0.460290000000    -0.0140816  
C98      C      0.786660000000     0.271570000000     0.410100000000    -0.0322338  
C99      C      0.804020000000     0.352910000000     0.506260000000    -0.00506965 
C100     C      0.858270000000     0.332000000000     0.425430000000     0.0950051  
C101     C      0.316520000000     0.808790000000     0.535180000000    -0.0148159  
C102     C      0.305320000000     0.775230000000     0.637840000000    -0.0415777  
C103     C      0.385070000000     0.813880000000     0.537710000000    -0.00117846 
C104     C      0.381030000000     0.793230000000     0.639980000000     0.0950295  
C105     C      0.857390000000     0.555220000000     0.519430000000    -0.0142379  
C106     C      0.817600000000     0.501550000000     0.612890000000    -0.0314568  
C107     C      0.843330000000     0.610880000000     0.532110000000    -0.0091079  
C108     C      0.802640000000     0.557300000000     0.625080000000     0.0930501  
C109     C      0.388240000000     0.622280000000     0.593910000000    -0.0105318  
C110     C      0.381090000000     0.562800000000     0.508870000000    -0.028608   
C111     C      0.310800000000     0.590320000000     0.592550000000    -0.0096807  
C112     C      0.303150000000     0.535270000000     0.499900000000     0.0943789  
C113     C      0.108730000000     0.519330000000     0.828330000000    -0.00467916 
C114     C      0.104390000000     0.624780000000     0.837790000000    -0.036209   
C115     C      0.136440000000     0.544350000000     0.771090000000    -0.0128367  
C116     C      0.116800000000     0.639210000000     0.773720000000     0.0925452  
C117     C      0.062470000000     0.480870000000     0.338990000000    -0.00139107 
C118     C      0.157860000000     0.600710000000     0.328020000000    -0.0293804  
C119     C      0.085720000000     0.474050000000     0.282560000000    -0.00858083 
C120     C      0.129690000000     0.597510000000     0.266380000000     0.0965283  
C121     C      0.827280000000     0.372110000000     0.950490000000    -0.00928662 
C122     C      0.884540000000     0.318050000000     0.915930000000    -0.0308739  
C123     C      0.777310000000     0.313310000000     0.984690000000     0.00164314 
C124     C      0.816060000000     0.250280000000     0.923880000000     0.0858618  
C125     C      0.366070000000     0.839610000000     0.165560000000    -0.0128871  
C126     C      0.326260000000     0.894840000000     0.096500000000    -0.0189178  
C127     C      0.316070000000     0.771460000000     0.140190000000    -0.00916    
C128     C      0.281750000000     0.831590000000     0.063360000000     0.0900569  
C129     C      0.842450000000     0.504840000000     0.033040000000    -0.00831504 
C130     C      0.842310000000     0.524750000000     0.134850000000    -0.0339654  
C131     C      0.803210000000     0.540510000000     0.017820000000    -0.0106269  
C132     C      0.810740000000     0.568810000000     0.118640000000     0.10073    
C133     C      0.308730000000     0.522230000000     0.085100000000    -0.0112262  
C134     C      0.327790000000     0.634820000000     0.113910000000    -0.0388492  
C135     C      0.333720000000     0.515350000000     0.144660000000    -0.00531518 
C136     C      0.360220000000     0.625370000000     0.170250000000     0.0919929  
C137     C      0.881490000000     0.820100000000     0.654590000000    -0.00763492 
C138     C      0.815480000000     0.865000000000     0.596580000000    -0.0258054  
C139     C      0.816330000000     0.751710000000     0.646800000000    -0.00890432 
C140     C      0.756290000000     0.818930000000     0.634890000000     0.0865627  
C141     C      0.331350000000     0.222680000000     0.424370000000    -0.0141664  
C142     C      0.260870000000     0.271760000000     0.443730000000    -0.0342622  
C143     C      0.391290000000     0.295890000000     0.429510000000    -0.00643834 
C144     C      0.315980000000     0.320760000000     0.486250000000     0.0936215  
C145     C      0.850610000000     0.143520000000     0.533930000000    -0.00424358 
C146     C      0.812400000000     0.052200000000     0.609840000000    -0.0260431  
C147     C      0.892600000000     0.114590000000     0.514640000000    -0.0028338  
C148     C      0.888170000000     0.076360000000     0.617480000000     0.096329   
C149     C      0.381740000000     0.119820000000     0.534300000000    -0.0257403  
C150     C      0.324440000000     0.027870000000     0.465560000000    -0.0352762  
C151     C      0.349900000000     0.069570000000     0.582510000000     0.00745569 
C152     C      0.287210000000     0.979370000000     0.514640000000     0.100479   
C153     C      0.009140000000     0.807860000000     0.563050000000    -0.00203468 
C154     C      0.989350000000     0.790770000000     0.460090000000    -0.0265455  
C155     C      0.064730000000     0.791170000000     0.564050000000    -0.0186326  
C156     C      0.041170000000     0.765100000000     0.461470000000     0.0870288  
C157     C      0.066770000000     0.299740000000     0.656940000000    -0.00648722 
C158     C      0.163290000000     0.357780000000     0.591400000000    -0.0277052  
C159     C      0.096490000000     0.253000000000     0.667940000000    -0.00525448 
C160     C      0.148580000000     0.290360000000     0.571790000000     0.0972041  
C161     C      0.029060000000     0.035650000000     0.796450000000    -0.0114937  
C162     C      0.123140000000     0.151830000000     0.804230000000    -0.0289658  
C163     C      0.078620000000     0.013440000000     0.780730000000    -0.0156053  
C164     C      0.174620000000     0.131920000000     0.787060000000     0.0944823  
C165     C      0.116140000000     0.109320000000     0.320770000000    -0.0129216  
C166     C      0.141520000000     0.018480000000     0.314850000000    -0.0369747  
C167     C      0.091100000000     0.101140000000     0.259340000000    -0.00700431 
C168     C      0.109730000000     0.001630000000     0.254830000000     0.0994008  
C169     C      0.754850000000     0.843330000000     0.075110000000    -0.0132292  
C170     C      0.791110000000     0.764000000000     0.046290000000    -0.0286553  
C171     C      0.788820000000     0.886630000000     0.022450000000    -0.0151704  
C172     C      0.814380000000     0.803980000000     0.990370000000     0.0898717  
C173     C      0.294440000000     0.360300000000     0.050660000000    -0.0115708  
C174     C      0.349400000000     0.290690000000     0.074020000000    -0.0382776  
C175     C      0.252060000000     0.330850000000     0.102870000000    -0.0131591  
C176     C      0.306260000000     0.264030000000     0.126550000000     0.0930845  
C177     C      0.894120000000     0.146730000000     0.159170000000    -0.010671   
C178     C      0.838340000000     0.022540000000     0.151310000000    -0.0294926  
C179     C      0.834370000000     0.147350000000     0.124810000000    -0.0103874  
C180     C      0.772210000000     0.026400000000     0.148840000000     0.0927466  
C181     C      0.323390000000     0.019480000000     0.958260000000    -0.0138682  
C182     C      0.379310000000     0.145580000000     0.952980000000    -0.034985   
C183     C      0.262760000000     0.013420000000     0.920930000000    -0.00571301 
C184     C      0.320110000000     0.134870000000     0.911780000000     0.0958807  
C185     C      0.055590000000     0.815440000000     0.997460000000    -0.00116894 
C186     C      0.030130000000     0.807050000000     0.101350000000    -0.0314547  
C187     C      0.017470000000     0.739670000000     0.995290000000    -0.0110724  
C188     C      0.992700000000     0.731210000000     0.095730000000     0.0975602  
C189     C      0.094830000000     0.328130000000     0.000470000000    -0.00220192 
C190     C      0.969160000000     0.250180000000     0.025660000000    -0.0365577  
C191     C      0.077090000000     0.287910000000     0.947360000000    -0.010069   
C192     C      0.960470000000     0.210170000000     0.972680000000     0.095383   
Co1      Co     0.048820000000     0.113310000000     0.077050000000     1.06507    
Co2      Co     0.051160000000     0.988070000000     0.962020000000     1.11399    
Co3      Co     0.155880000000     0.142080000000     0.993140000000     1.10502    
Co4      Co     0.994590000000     0.987550000000     0.086400000000     0.983152   
Co5      Co     0.116210000000     0.028150000000     0.497460000000     1.0988     
Co6      Co     0.049750000000     0.036040000000     0.630970000000     1.16622    
Co7      Co     0.006010000000     0.007450000000     0.495140000000     0.803869   
Co8      Co     0.201290000000     0.123550000000     0.593270000000     1.1423     
Co9      Co     0.099020000000     0.464020000000     0.007180000000     1.19089    
Co10     Co     0.078100000000     0.596690000000     0.084620000000     0.795403   
Co11     Co     0.987940000000     0.440950000000     0.101660000000     1.05971    
Co12     Co     0.136260000000     0.619510000000     0.032490000000     0.787101   
Co13     Co     0.071020000000     0.466050000000     0.494150000000     1.20686    
Co14     Co     0.074110000000     0.608540000000     0.576340000000     0.822941   
Co15     Co     0.996310000000     0.454910000000     0.616860000000     1.13599    
Co16     Co     0.130270000000     0.616310000000     0.525900000000     0.748394   
Co17     Co     0.470560000000     0.040660000000     0.064180000000     1.0531     
Co18     Co     0.624900000000     0.046500000000     0.985600000000     1.1259     
Co19     Co     0.593190000000     0.164330000000     0.009160000000     1.05527    
Co20     Co     0.591540000000     0.020760000000     0.115930000000     1.07847    
Co21     Co     0.482770000000     0.033630000000     0.572720000000     1.07372    
Co22     Co     0.652800000000     0.074060000000     0.482220000000     1.03461    
Co23     Co     0.588380000000     0.139650000000     0.500560000000     1.064      
Co24     Co     0.593930000000     0.992800000000     0.601410000000     1.17099    
Co25     Co     0.568930000000     0.470450000000     0.038500000000     1.07849    
Co26     Co     0.554100000000     0.622690000000     0.119310000000     1.04372    
Co27     Co     0.495170000000     0.490140000000     0.140360000000     1.05234    
Co28     Co     0.657470000000     0.630360000000     0.041890000000     1.09795    
Co29     Co     0.590570000000     0.456090000000     0.530760000000     1.19257    
Co30     Co     0.588400000000     0.607010000000     0.606770000000     0.811584   
Co31     Co     0.472700000000     0.450810000000     0.613000000000     1.18596    
Co32     Co     0.631720000000     0.610860000000     0.539830000000     0.817951   
H1       H      0.597820000000     0.633390000000     0.794120000000     0.0563705  
H2       H      0.671530000000     0.635030000000     0.870160000000     0.0562601  
H3       H      0.474220000000     0.516880000000     0.806240000000     0.0405579  
H4       H      0.483420000000     0.453730000000     0.885030000000     0.0759638  
H5       H      0.662080000000     0.622110000000     0.766010000000     0.06508    
H6       H      0.671600000000     0.563050000000     0.846900000000     0.054674   
H7       H      0.549810000000     0.446110000000     0.856530000000     0.0705958  
H8       H      0.691020000000     0.552830000000     0.315750000000     0.0630723  
H9       H      0.598650000000     0.465190000000     0.368130000000     0.0515281  
H10      H      0.697360000000     0.658190000000     0.328070000000     0.0482993  
H11      H      0.608710000000     0.652330000000     0.385030000000     0.0752584  
H12      H      0.629280000000     0.493460000000     0.268140000000     0.0736959  
H13      H      0.535670000000     0.474460000000     0.326530000000     0.0492023  
H14      H      0.542050000000     0.595940000000     0.337340000000     0.0717805  
H15      H      0.699400000000     0.809950000000     0.450750000000     0.0544282  
H16      H      0.633350000000     0.857960000000     0.412610000000     0.0553527  
H17      H      0.510700000000     0.711320000000     0.522420000000     0.0419549  
H18      H      0.516840000000     0.789500000000     0.454270000000     0.0577153  
H19      H      0.709360000000     0.845230000000     0.517900000000     0.0475163  
H20      H      0.700850000000     0.921750000000     0.454420000000     0.0461877  
H21      H      0.501990000000     0.813530000000     0.518450000000     0.0682556  
H22      H      0.650570000000     0.334960000000     0.705090000000     0.0484041  
H23      H      0.676960000000     0.296210000000     0.625010000000     0.046641   
H24      H      0.537630000000     0.260730000000     0.727260000000     0.0366023  
H25      H      0.469750000000     0.172080000000     0.659070000000     0.0597252  
H26      H      0.671320000000     0.397890000000     0.652600000000     0.0593248  
H27      H      0.626910000000     0.318310000000     0.577540000000     0.0490556  
H28      H      0.480550000000     0.234960000000     0.606600000000     0.0611948  
H29      H      0.613800000000     0.185890000000     0.807460000000     0.0582027  
H30      H      0.545390000000     0.151420000000     0.721860000000     0.0411384  
H31      H      0.633120000000     0.043970000000     0.852670000000     0.0403444  
H32      H      0.673130000000     0.122410000000     0.774550000000     0.0727979  
H33      H      0.526960000000     0.149450000000     0.826720000000     0.04827    
H34      H      0.484340000000     0.072320000000     0.750390000000     0.0658327  
H35      H      0.641060000000     0.038570000000     0.753300000000     0.0738155  
H36      H      0.509210000000     0.114120000000     0.329900000000     0.0515494  
H37      H      0.450250000000     0.080060000000     0.242410000000     0.0445699  
H38      H      0.575000000000     0.978950000000     0.340110000000     0.048384   
H39      H      0.618430000000     0.076690000000     0.278290000000     0.0506559  
H40      H      0.431890000000     0.039020000000     0.346810000000     0.050753   
H41      H      0.421050000000     0.993690000000     0.255920000000     0.0632368  
H42      H      0.582120000000     0.001750000000     0.238960000000     0.0469246  
H43      H      0.454330000000     0.786310000000     0.025260000000     0.0457536  
H44      H      0.468510000000     0.701400000000     0.070060000000     0.0637823  
H45      H      0.520180000000     0.817430000000     0.939300000000     0.0492316  
H46      H      0.589020000000     0.764480000000     0.932630000000     0.0662685  
H47      H      0.498330000000     0.819730000000     0.090760000000     0.0576651  
H48      H      0.554150000000     0.759520000000     0.094460000000     0.0856883  
H49      H      0.641100000000     0.806860000000     0.993020000000     0.0698982  
H50      H      0.444050000000     0.291820000000     0.174580000000     0.0543019  
H51      H      0.447730000000     0.223230000000     0.105460000000     0.0564261  
H52      H      0.640300000000     0.360220000000     0.121570000000     0.0377327  
H53      H      0.644500000000     0.266790000000     0.155120000000     0.0674718  
H54      H      0.496250000000     0.276460000000     0.224300000000     0.0548537  
H55      H      0.439240000000     0.177230000000     0.170210000000     0.0572546  
H56      H      0.592580000000     0.251420000000     0.212400000000     0.063811   
H57      H      0.820020000000     0.402470000000     0.523190000000     0.0412948  
H58      H      0.767460000000     0.378650000000     0.427970000000     0.048425   
H59      H      0.865050000000     0.374690000000     0.398000000000     0.0397773  
H60      H      0.777790000000     0.269560000000     0.363870000000     0.0589801  
H61      H      0.782680000000     0.315290000000     0.540700000000     0.0540672  
H62      H      0.704220000000     0.336700000000     0.478560000000     0.0488852  
H63      H      0.786120000000     0.225200000000     0.423900000000     0.0714726  
H64      H      0.378760000000     0.763920000000     0.532380000000     0.0483551  
H65      H      0.293860000000     0.794100000000     0.492130000000     0.0769006  
H66      H      0.380340000000     0.746070000000     0.633110000000     0.0363428  
H67      H      0.276620000000     0.731350000000     0.665810000000     0.0687376  
H68      H      0.416250000000     0.846330000000     0.503020000000     0.0593204  
H69      H      0.321990000000     0.857900000000     0.542100000000     0.065979   
H70      H      0.301230000000     0.817010000000     0.653510000000     0.0699619  
H71      H      0.890000000000     0.652600000000     0.551600000000     0.0501016  
H72      H      0.899610000000     0.574080000000     0.490780000000     0.0725133  
H73      H      0.849890000000     0.598100000000     0.645570000000     0.0464231  
H74      H      0.833330000000     0.484690000000     0.652290000000     0.0676248  
H75      H      0.830160000000     0.629930000000     0.492620000000     0.0530677  
H76      H      0.811970000000     0.515160000000     0.496790000000     0.0431876  
H77      H      0.770950000000     0.458110000000     0.594940000000     0.0520502  
H78      H      0.289860000000     0.547260000000     0.622390000000     0.0451247  
H79      H      0.408850000000     0.632320000000     0.637980000000     0.0590848  
H80      H      0.276790000000     0.481850000000     0.511520000000     0.0529932  
H81      H      0.393490000000     0.526860000000     0.492050000000     0.083525   
H82      H      0.299870000000     0.627860000000     0.608140000000     0.0524497  
H83      H      0.409430000000     0.670010000000     0.570030000000     0.0551901  
H84      H      0.409740000000     0.609370000000     0.483900000000     0.0704721  
H85      H      0.192260000000     0.579460000000     0.775340000000     0.0472705  
H86      H      0.135150000000     0.493520000000     0.847400000000     0.0425734  
H87      H      0.171930000000     0.676390000000     0.770460000000     0.0395254  
H88      H      0.134920000000     0.672650000000     0.859980000000     0.0687332  
H89      H      0.129730000000     0.501390000000     0.747590000000     0.0521256  
H90      H      0.053280000000     0.482740000000     0.824230000000     0.0485279  
H91      H      0.049990000000     0.606730000000     0.844730000000     0.067361   
H92      H      0.135360000000     0.475870000000     0.288330000000     0.0504498  
H93      H      0.063660000000     0.442910000000     0.368320000000     0.0377247  
H94      H      0.174730000000     0.627610000000     0.240570000000     0.0431449  
H95      H      0.202510000000     0.593590000000     0.328740000000     0.0640385  
H96      H      0.047550000000     0.424580000000     0.265700000000     0.0565443  
H97      H      0.008980000000     0.469850000000     0.333640000000     0.0678389  
H98      H      0.176050000000     0.650540000000     0.345460000000     0.083571   
H99      H      0.793930000000     0.321770000000     0.029730000000     0.0503628  
H100     H      0.836700000000     0.419180000000     0.965850000000     0.039371   
H101     H      0.831770000000     0.214010000000     0.937840000000     0.0490862  
H102     H      0.929020000000     0.311810000000     0.924380000000     0.0485693  
H103     H      0.727000000000     0.310240000000     0.978900000000     0.032741   
H104     H      0.806030000000     0.369220000000     0.906860000000     0.0531243  
H105     H      0.888120000000     0.335590000000     0.871560000000     0.0578386  
H106     H      0.348460000000     0.758300000000     0.117970000000     0.0442075  
H107     H      0.411950000000     0.839410000000     0.184090000000     0.068407   
H108     H      0.311360000000     0.832150000000     0.027930000000     0.0528523  
H109     H      0.342440000000     0.939830000000     0.069250000000     0.0371482  
H110     H      0.290760000000     0.734860000000     0.174610000000     0.0571399  
H111     H      0.341850000000     0.849390000000     0.199790000000     0.0621296  
H112     H      0.297700000000     0.899310000000     0.130260000000     0.0684368  
H113     H      0.839200000000     0.592100000000     0.003380000000     0.0489834  
H114     H      0.878120000000     0.516730000000     0.999170000000     0.0514537  
H115     H      0.853440000000     0.619260000000     0.109420000000     0.0503656  
H116     H      0.878080000000     0.545430000000     0.172040000000     0.0844694  
H117     H      0.766850000000     0.514290000000     0.982060000000     0.0465594  
H118     H      0.805160000000     0.450720000000     0.035140000000     0.0416455  
H119     H      0.801820000000     0.473220000000     0.145140000000     0.072174   
H120     H      0.290460000000     0.494890000000     0.172900000000     0.0447397  
H121     H      0.265450000000     0.472610000000     0.073550000000     0.0483663  
H122     H      0.316480000000     0.598010000000     0.197960000000     0.035904   
H123     H      0.292570000000     0.650750000000     0.126040000000     0.0614404  
H124     H      0.350030000000     0.477940000000     0.146030000000     0.046122   
H125     H      0.349850000000     0.536360000000     0.055740000000     0.0575768  
H126     H      0.365770000000     0.673890000000     0.086900000000     0.0563982  
H127     H      0.819790000000     0.731240000000     0.606950000000     0.060332   
H128     H      0.925490000000     0.813780000000     0.647910000000     0.0426241  
H129     H      0.710130000000     0.810160000000     0.609670000000     0.0540487  
H130     H      0.802190000000     0.844440000000     0.553790000000     0.0545643  
H131     H      0.815380000000     0.718020000000     0.681610000000     0.0604403  
H132     H      0.888000000000     0.836580000000     0.698260000000     0.0608103  
H133     H      0.820610000000     0.915020000000     0.594100000000     0.0574636  
H134     H      0.439670000000     0.295090000000     0.434330000000     0.0471815  
H135     H      0.346100000000     0.189380000000     0.446930000000     0.043966   
H136     H      0.301240000000     0.295700000000     0.528090000000     0.0501968  
H137     H      0.209400000000     0.259300000000     0.455130000000     0.0779     
H138     H      0.393010000000     0.323600000000     0.389950000000     0.0447796  
H139     H      0.323890000000     0.208580000000     0.379740000000     0.0424265  
H140     H      0.268950000000     0.294610000000     0.400960000000     0.0643265  
H141     H      0.859260000000     0.070500000000     0.488540000000     0.0420501  
H142     H      0.826450000000     0.153390000000     0.495730000000     0.0505191  
H143     H      0.887890000000     0.031310000000     0.635890000000     0.0431927  
H144     H      0.786280000000     0.002150000000     0.590760000000     0.0577778  
H145     H      0.933540000000     0.152260000000     0.488330000000     0.0688586  
H146     H      0.884460000000     0.191890000000     0.554350000000     0.0721967  
H147     H      0.791200000000     0.046900000000     0.651590000000     0.0789161  
H148     H      0.381840000000     0.047570000000     0.596230000000     0.0175643  
H149     H      0.430850000000     0.162670000000     0.546790000000     0.055651   
H150     H      0.320630000000     0.959800000000     0.531200000000     0.0332585  
H151     H      0.334780000000     0.001780000000     0.433320000000     0.0668011  
H152     H      0.346510000000     0.094480000000     0.619530000000     0.0498542  
H153     H      0.348260000000     0.139740000000     0.521950000000     0.0564818  
H154     H      0.292450000000     0.046900000000     0.444860000000     0.0722333  
H155     H      0.114420000000     0.837160000000     0.558150000000     0.0736566  
H156     H      0.020690000000     0.844020000000     0.596460000000     0.0566398  
H157     H      0.090960000000     0.808320000000     0.450070000000     0.0644362  
H158     H      0.991770000000     0.817460000000     0.419710000000     0.0701317  
H159     H      0.067070000000     0.772210000000     0.607100000000     0.0730983  
H160     H      0.959900000000     0.762730000000     0.572130000000     0.0416094  
H161     H      0.936490000000     0.748500000000     0.463140000000     0.0652846  
H162     H      0.139470000000     0.276690000000     0.699510000000     0.0515272  
H163     H      0.069260000000     0.323640000000     0.696710000000     0.0461999  
H164     H      0.198220000000     0.298250000000     0.559390000000     0.0495039  
H165     H      0.204460000000     0.376010000000     0.624910000000     0.0542268  
H166     H      0.057000000000     0.205920000000     0.687010000000     0.062205   
H167     H      0.012510000000     0.269190000000     0.643190000000     0.0698438  
H168     H      0.182880000000     0.394450000000     0.556240000000     0.0689384  
H169     H      0.096750000000     0.997250000000     0.819200000000     0.0458575  
H170     H      0.985060000000     0.994240000000     0.817620000000     0.0550363  
H171     H      0.194680000000     0.118930000000     0.826360000000     0.04882    
H172     H      0.148440000000     0.195850000000     0.831700000000     0.0679443  
H173     H      0.050650000000     0.969170000000     0.753840000000     0.042968   
H174     H      0.008390000000     0.048790000000     0.757700000000     0.0430471  
H175     H      0.101770000000     0.165950000000     0.766610000000     0.0643168  
H176     H      0.034910000000     0.079370000000     0.257960000000     0.0454892  
H177     H      0.087360000000     0.126660000000     0.343720000000     0.0598443  
H178     H      0.056470000000     0.959670000000     0.258180000000     0.0440047  
H179     H      0.134250000000     0.971870000000     0.335850000000     0.0835011  
H180     H      0.113670000000     0.151800000000     0.239950000000     0.0585673  
H181     H      0.170720000000     0.148730000000     0.324150000000     0.0516469  
H182     H      0.197130000000     0.054420000000     0.314640000000     0.0734946  
H183     H      0.749770000000     0.874820000000     0.988300000000     0.0646555  
H184     H      0.706700000000     0.842480000000     0.080540000000     0.0729148  
H185     H      0.767860000000     0.786850000000     0.962090000000     0.0371997  
H186     H      0.770140000000     0.711260000000     0.036370000000     0.0303798  
H187     H      0.809250000000     0.939830000000     0.031200000000     0.0742067  
H188     H      0.789200000000     0.866500000000     0.112500000000     0.0531041  
H189     H      0.835160000000     0.779030000000     0.076740000000     0.0694158  
H190     H      0.279890000000     0.362540000000     0.139430000000     0.0402476  
H191     H      0.306720000000     0.412170000000     0.042660000000     0.0414401  
H192     H      0.335570000000     0.300910000000     0.160080000000     0.032767   
H193     H      0.399450000000     0.294240000000     0.082820000000     0.0625052  
H194     H      0.203060000000     0.329960000000     0.097410000000     0.0479248  
H195     H      0.263290000000     0.331700000000     0.013540000000     0.0425051  
H196     H      0.322760000000     0.255410000000     0.040230000000     0.0801162  
H197     H      0.814430000000     0.171870000000     0.150170000000     0.0478783  
H198     H      0.884560000000     0.143580000000     0.204450000000     0.0436411  
H199     H      0.765890000000     0.039360000000     0.191340000000     0.0293956  
H200     H      0.842890000000     0.999260000000     0.191750000000     0.0565943  
H201     H      0.853110000000     0.177930000000     0.086410000000     0.0505129  
H202     H      0.942050000000     0.194490000000     0.153070000000     0.0529081  
H203     H      0.835070000000     0.990430000000     0.117300000000     0.0742164  
H204     H      0.270690000000     0.008500000000     0.876510000000     0.0499721  
H205     H      0.333170000000     0.980050000000     0.945390000000     0.0658926  
H206     H      0.334110000000     0.126870000000     0.870250000000     0.0453565  
H207     H      0.426890000000     0.189700000000     0.938770000000     0.0697319  
H208     H      0.215350000000     0.967430000000     0.932870000000     0.0557745  
H209     H      0.308190000000     0.009350000000     0.002410000000     0.054039   
H210     H      0.369830000000     0.155040000000     0.995570000000     0.0748789  
H211     H      0.963190000000     0.720350000000     0.982170000000     0.0592094  
H212     H      0.041990000000     0.833490000000     0.957570000000     0.0485783  
H213     H      0.939840000000     0.716640000000     0.080680000000     0.0421702  
H214     H      0.000510000000     0.819560000000     0.128370000000     0.077207   
H215     H      0.039490000000     0.724800000000     0.962750000000     0.0610424  
H216     H      0.110820000000     0.835010000000     0.998480000000     0.0736759  
H217     H      0.081370000000     0.825980000000     0.121990000000     0.0906421  
H218     H      0.055560000000     0.308170000000     0.914280000000     0.0366518  
H219     H      0.125800000000     0.381380000000     0.988120000000    -0.00148032 
H220     H      0.944150000000     0.230610000000     0.936320000000     0.0325169  
H221     H      0.925270000000     0.258380000000     0.025640000000     0.0560255  
H222     H      0.123600000000     0.292410000000     0.930660000000     0.0467515  
H223     H      0.126700000000     0.315370000000     0.029120000000     0.0495151  
H224     H      0.967830000000     0.219780000000     0.062780000000     0.0713544  
N1       N      0.561310000000     0.536340000000     0.765090000000    -0.174726   
N2       N      0.581570000000     0.541650000000     0.884770000000    -0.172077   
N3       N      0.457040000000     0.427430000000     0.772910000000    -0.0241648  
N4       N      0.631290000000     0.586630000000     0.269890000000    -0.176719   
N5       N      0.595030000000     0.554240000000     0.381470000000    -0.173074   
N6       N      0.648150000000     0.699360000000     0.277860000000    -0.0182314  
N7       N      0.614430000000     0.758060000000     0.502810000000    -0.158443   
N8       N      0.602430000000     0.874210000000     0.488590000000    -0.164131   
N9       N      0.572810000000     0.773940000000     0.588030000000    -0.0170131  
N10      N      0.565370000000     0.339590000000     0.668970000000    -0.185468   
N11      N      0.569440000000     0.230630000000     0.625680000000    -0.168261   
N12      N      0.451500000000     0.269010000000     0.704390000000    -0.0155542  
N13      N      0.573580000000     0.091350000000     0.847510000000    -0.177604   
N14      N      0.577970000000     0.080930000000     0.730370000000    -0.166818   
N15      N      0.534270000000     0.977430000000     0.817130000000    -0.0222332  
N16      N      0.520790000000     0.030850000000     0.352030000000    -0.182431   
N17      N      0.524550000000     0.051480000000     0.235420000000    -0.17117    
N18      N      0.475110000000     0.926800000000     0.304180000000    -0.0270584  
N19      N      0.557890000000     0.858840000000     0.019270000000    -0.175011   
N20      N      0.543530000000     0.729320000000     0.010670000000    -0.160662   
N21      N      0.619720000000     0.897610000000     0.932970000000    -0.0259381  
N22      N      0.550780000000     0.343760000000     0.159070000000    -0.178571   
N23      N      0.536510000000     0.222860000000     0.135590000000    -0.170168   
N24      N      0.660500000000     0.379590000000     0.208220000000    -0.0324425  
N25      N      0.862930000000     0.352220000000     0.484490000000    -0.188346   
N26      N      0.731210000000     0.275280000000     0.435060000000    -0.158302   
N27      N      0.913010000000     0.318650000000     0.413870000000    -0.0233664  
N28      N      0.416640000000     0.839710000000     0.592840000000    -0.180399   
N29      N      0.276270000000     0.762050000000     0.579780000000    -0.149915   
N30      N      0.413640000000     0.816130000000     0.696030000000    -0.0314805  
N31      N      0.788360000000     0.584140000000     0.571280000000    -0.17928    
N32      N      0.870950000000     0.527240000000     0.572200000000    -0.17251    
N33      N      0.746980000000     0.533940000000     0.663770000000    -0.0244803  
N34      N      0.277780000000     0.566870000000     0.536150000000    -0.177454   
N35      N      0.405080000000     0.577790000000     0.567770000000    -0.163651   
N36      N      0.284820000000     0.541680000000     0.440460000000    -0.0223157  
N37      N      0.102830000000     0.578660000000     0.743450000000    -0.171775   
N38      N      0.120450000000     0.574840000000     0.862940000000    -0.172706   
N39      N      0.077480000000     0.670580000000     0.752000000000    -0.0316616  
N40      N      0.093030000000     0.528530000000     0.244820000000    -0.171444   
N41      N      0.105710000000     0.548030000000     0.362400000000    -0.162813   
N42      N      0.085550000000     0.626890000000     0.259450000000    -0.0136828  
N43      N      0.771900000000     0.250650000000     0.967560000000    -0.175419   
N44      N      0.889650000000     0.369950000000     0.950900000000    -0.170153   
N45      N      0.779340000000     0.230180000000     0.868820000000    -0.0277896  
N46      N      0.264920000000     0.771450000000     0.098500000000    -0.154416   
N47      N      0.383820000000     0.890750000000     0.121830000000    -0.174204   
N48      N      0.219200000000     0.829340000000     0.040240000000    -0.0197317  
N49      N      0.768200000000     0.543320000000     0.065860000000    -0.187928   
N50      N      0.879220000000     0.523900000000     0.087660000000    -0.170647   
N51      N      0.771940000000     0.572480000000     0.164480000000    -0.0216448  
N52      N      0.388140000000     0.581400000000     0.163230000000    -0.169145   
N53      N      0.287920000000     0.572870000000     0.081540000000    -0.171626   
N54      N      0.405770000000     0.687510000000     0.200150000000    -0.0320591  
N55      N      0.752670000000     0.754320000000     0.644890000000    -0.155028   
N56      N      0.880800000000     0.870120000000     0.614910000000    -0.164406   
N57      N      0.756370000000     0.848550000000     0.688070000000    -0.0170431  
N58      N      0.384510000000     0.330890000000     0.476240000000    -0.185561   
N59      N      0.266270000000     0.212330000000     0.443300000000    -0.173004   
N60      N      0.319210000000     0.385890000000     0.485990000000    -0.0255137  
N61      N      0.921440000000     0.094260000000     0.562830000000    -0.18259    
N62      N      0.799290000000     0.096950000000     0.573100000000    -0.177584   
N63      N      0.925490000000     0.131230000000     0.657360000000    -0.0272017  
N64      N      0.283150000000     0.017560000000     0.560350000000    -0.189865   
N65      N      0.387910000000     0.085210000000     0.487480000000    -0.174213   
N66      N      0.219720000000     0.921880000000     0.498650000000    -0.0295927  
N67      N      0.051370000000     0.743850000000     0.519140000000    -0.15445    
N68      N      0.004420000000     0.834360000000     0.507710000000    -0.172694   
N69      N      0.022410000000     0.713080000000     0.420170000000    -0.0144662  
N70      N      0.122060000000     0.239840000000     0.617590000000    -0.171462   
N71      N      0.101750000000     0.351200000000     0.613770000000    -0.173721   
N72      N      0.101150000000     0.269970000000     0.522120000000    -0.0254099  
N73      N      0.137840000000     0.069790000000     0.753880000000    -0.187992   
N74      N      0.067100000000     0.094330000000     0.831800000000    -0.173139   
N75      N      0.233440000000     0.187220000000     0.759080000000    -0.0192735  
N76      N      0.106740000000     0.058240000000     0.227050000000    -0.179261   
N77      N      0.108940000000     0.047400000000     0.344820000000    -0.152675   
N78      N      0.146300000000     0.980040000000     0.220610000000    -0.0232538  
N79      N      0.840970000000     0.874660000000     0.001560000000    -0.182062   
N80      N      0.739920000000     0.774490000000     0.071900000000    -0.176291   
N81      N      0.862620000000     0.792570000000     0.961640000000    -0.0228333  
N82      N      0.242240000000     0.264230000000     0.113300000000    -0.178267   
N83      N      0.356690000000     0.355450000000     0.056370000000    -0.174905   
N84      N      0.291400000000     0.197060000000     0.147220000000    -0.0167053  
N85      N      0.778930000000     0.080170000000     0.109420000000    -0.171903   
N86      N      0.899460000000     0.088750000000     0.145530000000    -0.157252   
N87      N      0.711270000000     0.962410000000     0.134800000000    -0.0324517  
N88      N      0.257490000000     0.072720000000     0.926660000000    -0.182766   
N89      N      0.386160000000     0.085930000000     0.955240000000    -0.168174   
N90      N      0.310770000000     0.192710000000     0.903620000000    -0.0285895  
N91      N      0.021920000000     0.712780000000     0.050850000000    -0.158342   
N92      N      0.038450000000     0.839910000000     0.046240000000    -0.170642   
N93      N      0.988520000000     0.696340000000     0.150100000000    -0.0257339  
N94      N      0.027130000000     0.219130000000     0.961280000000    -0.180831   
N95      N      0.033790000000     0.315100000000     0.029840000000    -0.184808   
N96      N      0.908330000000     0.139200000000     0.978650000000    -0.0192591  
O1       O      0.009670000000     0.127970000000     0.012550000000    -0.439068   
O2       O      0.952780000000     0.922300000000     0.974450000000    -0.40876    
O3       O      0.124620000000     0.123840000000     0.916300000000    -0.450717   
O4       O      0.959670000000     0.042530000000     0.115150000000    -0.476596   
O5       O      0.023930000000     0.035170000000     0.912030000000    -0.456192   
O6       O      0.009430000000     0.150150000000     0.117250000000    -0.395983   
O7       O      0.928320000000     0.973440000000     0.031020000000    -0.451407   
O8       O      0.110960000000     0.194310000000     0.984010000000    -0.447552   
O9       O      0.089210000000     0.103330000000     0.146100000000    -0.441905   
O10      O      0.142840000000     0.028270000000     0.933610000000    -0.43427    
O11      O      0.195730000000     0.168730000000     0.064860000000    -0.434305   
O12      O      0.007420000000     0.914070000000     0.070020000000    -0.426543   
O13      O      0.078410000000     0.939740000000     0.004500000000    -0.487776   
O14      O      0.129570000000     0.204930000000     0.082000000000    -0.387964   
O15      O      0.055090000000     0.999240000000     0.148030000000    -0.433765   
O16      O      0.210810000000     0.103480000000     0.992430000000    -0.424305   
O17      O      0.074320000000     0.057980000000     0.030310000000    -0.51947    
O18      O      0.119870000000     0.001720000000     0.427760000000    -0.4063     
O19      O      0.094810000000     0.133680000000     0.646550000000    -0.412872   
O20      O      0.995090000000     0.082110000000     0.509170000000    -0.389024   
O21      O      0.249220000000     0.155780000000     0.525570000000    -0.454997   
O22      O      0.988040000000     0.055760000000     0.598530000000    -0.491327   
O23      O      0.163570000000     0.123880000000     0.468370000000    -0.398464   
O24      O      0.173700000000     0.186790000000     0.584980000000    -0.441717   
O25      O      0.057040000000     0.048990000000     0.424660000000    -0.391449   
O26      O      0.198640000000     0.029230000000     0.516240000000    -0.421663   
O27      O      0.995940000000     0.941860000000     0.620100000000    -0.429602   
O28      O      0.997770000000     0.923590000000     0.473470000000    -0.417824   
O29      O      0.187730000000     0.115430000000     0.671550000000    -0.430806   
O30      O      0.109720000000     0.015710000000     0.671470000000    -0.459871   
O31      O      0.081080000000     0.941470000000     0.528470000000    -0.424383   
O32      O      0.228800000000     0.060880000000     0.602540000000    -0.454077   
O33      O      0.937020000000     0.951710000000     0.549120000000    -0.38904    
O34      O      0.099370000000     0.051220000000     0.561010000000    -0.596213   
O35      O      0.001540000000     0.412820000000     0.980700000000    -0.432914   
O36      O      0.068750000000     0.663930000000     0.107570000000    -0.342912   
O37      O      0.948820000000     0.491050000000     0.131690000000    -0.410212   
O38      O      0.133960000000     0.612630000000     0.952540000000    -0.37746    
O39      O      0.981780000000     0.548470000000     0.058620000000    -0.3907     
O40      O      0.111960000000     0.511590000000     0.940510000000    -0.484416   
O41      O      0.066530000000     0.650950000000     0.018030000000    -0.37518    
O42      O      0.930950000000     0.421350000000     0.034960000000    -0.429804   
O43      O      0.191710000000     0.506550000000     0.028510000000    -0.461366   
O44      O      0.072110000000     0.565260000000     0.160420000000    -0.359178   
O45      O      0.990780000000     0.360090000000     0.085430000000    -0.423236   
O46      O      0.196160000000     0.707080000000     0.026300000000    -0.346901   
O47      O      0.179490000000     0.660250000000     0.110080000000    -0.368928   
O48      O      0.092870000000     0.415890000000     0.070120000000    -0.488761   
O49      O      0.213090000000     0.605160000000     0.047180000000    -0.389396   
O50      O      0.044610000000     0.459950000000     0.168540000000    -0.41624    
O51      O      0.075700000000     0.520090000000     0.054080000000    -0.516849   
O52      O      0.978450000000     0.407360000000     0.489490000000    -0.475615   
O53      O      0.074820000000     0.683550000000     0.584120000000    -0.37318    
O54      O      0.942490000000     0.498890000000     0.623580000000    -0.418702   
O55      O      0.141950000000     0.603980000000     0.446210000000    -0.340218   
O56      O      0.980350000000     0.566020000000     0.553050000000    -0.39537    
O57      O      0.048780000000     0.512000000000     0.441280000000    -0.469685   
O58      O      0.068480000000     0.655330000000     0.497900000000    -0.339679   
O59      O      0.926530000000     0.401150000000     0.564190000000    -0.476772   
O60      O      0.171490000000     0.518810000000     0.489570000000    -0.418737   
O61      O      0.060070000000     0.594960000000     0.656910000000    -0.344077   
O62      O      0.036550000000     0.399470000000     0.620260000000    -0.455189   
O63      O      0.195620000000     0.699430000000     0.514450000000    -0.357885   
O64      O      0.175230000000     0.665520000000     0.601320000000    -0.372829   
O65      O      0.090160000000     0.414280000000     0.543960000000    -0.488085   
O66      O      0.196800000000     0.592090000000     0.551890000000    -0.386863   
O67      O      0.059880000000     0.503030000000     0.673680000000    -0.461864   
O68      O      0.063680000000     0.521620000000     0.555380000000    -0.526619   
O69      O      0.448950000000     0.040130000000     0.987920000000    -0.431226   
O70      O      0.565150000000     0.956440000000     0.991540000000    -0.435353   
O71      O      0.596480000000     0.148140000000     0.929250000000    -0.424853   
O72      O      0.498660000000     0.948270000000     0.131600000000    -0.416322   
O73      O      0.563240000000     0.043360000000     0.932130000000    -0.4458     
O74      O      0.451640000000     0.954920000000     0.053670000000    -0.436175   
O75      O      0.593710000000     0.947720000000     0.077930000000    -0.408635   
O76      O      0.499720000000     0.146260000000     0.984750000000    -0.415196   
O77      O      0.480200000000     0.038850000000     0.146260000000    -0.42927    
O78      O      0.696310000000     0.137670000000     0.966020000000    -0.417009   
O79      O      0.591310000000     0.189850000000     0.081170000000    -0.44068    
O80      O      0.683440000000     0.084720000000     0.112310000000    -0.447813   
O81      O      0.696920000000     0.046180000000     0.037450000000    -0.401968   
O82      O      0.481470000000     0.128940000000     0.081610000000    -0.414295   
O83      O      0.588560000000     0.081800000000     0.160190000000    -0.445286   
O84      O      0.685340000000     0.195750000000     0.026760000000    -0.444441   
O85      O      0.570930000000     0.068660000000     0.044220000000    -0.504603   
O86      O      0.447520000000     0.033050000000     0.498700000000    -0.434412   
O87      O      0.651710000000     0.988380000000     0.491200000000    -0.420628   
O88      O      0.551270000000     0.097140000000     0.428100000000    -0.425938   
O89      O      0.505500000000     0.933440000000     0.629320000000    -0.427994   
O90      O      0.591140000000     0.032000000000     0.424000000000    -0.469654   
O91      O      0.447710000000     0.943780000000     0.560240000000    -0.461371   
O92      O      0.572450000000     0.926950000000     0.548360000000    -0.448985   
O93      O      0.502840000000     0.138570000000     0.495360000000    -0.400591   
O94      O      0.510110000000     0.035740000000     0.651680000000    -0.429846   
O95      O      0.675570000000     0.164990000000     0.459390000000    -0.49277    
O96      O      0.616580000000     0.186700000000     0.570610000000    -0.415293   
O97      O      0.687590000000     0.034490000000     0.590740000000    -0.476005   
O98      O      0.720070000000     0.119120000000     0.535410000000    -0.483585   
O99      O      0.510950000000     0.124540000000     0.592680000000    -0.436832   
O100     O      0.614110000000     0.053420000000     0.656040000000    -0.469863   
O101     O      0.622110000000     0.220170000000     0.464590000000    -0.402832   
O102     O      0.572310000000     0.052880000000     0.540900000000    -0.545727   
O103     O      0.471390000000     0.408420000000     0.045440000000    -0.43508    
O104     O      0.510810000000     0.627550000000     0.050810000000    -0.428222   
O105     O      0.467270000000     0.551640000000     0.151460000000    -0.542911   
O106     O      0.638680000000     0.593560000000     0.966750000000    -0.436011   
O107     O      0.505080000000     0.656950000000     0.155270000000    -0.355965   
O108     O      0.544740000000     0.498270000000     0.971200000000    -0.45863    
O109     O      0.607660000000     0.678380000000     0.011560000000    -0.411559   
O110     O      0.428810000000     0.461090000000     0.081350000000    -0.454842   
O111     O      0.664090000000     0.509760000000     0.020920000000    -0.447514   
O112     O      0.599460000000     0.623540000000     0.189720000000    -0.399218   
O113     O      0.502590000000     0.409550000000     0.144910000000    -0.433321   
O114     O      0.686210000000     0.670170000000     0.108480000000    -0.449295   
O115     O      0.633310000000     0.719660000000     0.108470000000    -0.357968   
O116     O      0.594530000000     0.437220000000     0.103690000000    -0.446226   
O117     O      0.710810000000     0.597190000000     0.069400000000    -0.458832   
O118     O      0.557120000000     0.517550000000     0.202640000000    -0.452966   
O119     O      0.576120000000     0.553860000000     0.082360000000    -0.513761   
O120     O      0.500960000000     0.394950000000     0.495860000000    -0.456254   
O121     O      0.570950000000     0.651560000000     0.539160000000    -0.411355   
O122     O      0.436120000000     0.500180000000     0.580220000000    -0.449809   
O123     O      0.585290000000     0.582500000000     0.468620000000    -0.396717   
O124     O      0.497910000000     0.592830000000     0.624590000000    -0.353529   
O125     O      0.608990000000     0.504040000000     0.461230000000    -0.462351   
O126     O      0.674500000000     0.700620000000     0.510230000000    -0.345287   
O127     O      0.431400000000     0.395740000000     0.552660000000    -0.473724   
O128     O      0.677170000000     0.506110000000     0.562690000000    -0.466356   
O129     O      0.603720000000     0.573190000000     0.678070000000    -0.379665   
O130     O      0.503990000000     0.392940000000     0.648470000000    -0.427168   
O131     O      0.691880000000     0.649490000000     0.609100000000    -0.404099   
O132     O      0.634180000000     0.692920000000     0.637760000000    -0.333133   
O133     O      0.578580000000     0.402590000000     0.591340000000    -0.509522   
O134     O      0.708680000000     0.600930000000     0.520130000000    -0.371894   
O135     O      0.498320000000     0.496170000000     0.682690000000    -0.436375   
O136     O      0.562980000000     0.516140000000     0.571980000000    -0.520291   
O137     O      0.487900000000     0.392220000000     0.770100000000    -0.0787211  
O138     O      0.402330000000     0.392070000000     0.802950000000    -0.0879804  
O139     O      0.585820000000     0.690790000000     0.270540000000    -0.0733832  
O140     O      0.684630000000     0.752790000000     0.309290000000    -0.0975407  
O141     O      0.619950000000     0.837280000000     0.596010000000    -0.0900321  
O142     O      0.517160000000     0.763440000000     0.611940000000    -0.0955533  
O143     O      0.410770000000     0.260850000000     0.659250000000    -0.1033     
O144     O      0.418200000000     0.216010000000     0.737670000000    -0.0953832  
O145     O      0.475820000000     0.977480000000     0.813540000000    -0.0757935  
O146     O      0.532100000000     0.939690000000     0.861360000000    -0.0664368  
O147     O      0.492640000000     0.888350000000     0.279170000000    -0.0996145  
O148     O      0.446760000000     0.895590000000     0.351530000000    -0.0917079  
O149     O      0.679650000000     0.926020000000     0.961170000000    -0.096912   
O150     O      0.627890000000     0.878180000000     0.884190000000    -0.0893437  
O151     O      0.627190000000     0.362200000000     0.255390000000    -0.109172   
O152     O      0.681230000000     0.443330000000     0.198300000000    -0.0874608  
O153     O      0.907240000000     0.267440000000     0.445160000000    -0.109417   
O154     O      0.907670000000     0.302770000000     0.360390000000    -0.116395   
O155     O      0.414630000000     0.871500000000     0.708870000000    -0.0826229  
O156     O      0.477500000000     0.828750000000     0.697250000000    -0.0674742  
O157     O      0.763020000000     0.510820000000     0.710710000000    -0.110751   
O158     O      0.742370000000     0.585780000000     0.678040000000    -0.0888398  
O159     O      0.313850000000     0.605720000000     0.425600000000    -0.0970742  
O160     O      0.307930000000     0.513410000000     0.408090000000    -0.0946394  
O161     O      0.012580000000     0.625080000000     0.740950000000    -0.0888737  
O162     O      0.103680000000     0.705840000000     0.705540000000    -0.0781719  
O163     O      0.034670000000     0.596960000000     0.294070000000    -0.0705146  
O164     O      0.121340000000     0.690970000000     0.272270000000    -0.0708703  
O165     O      0.733000000000     0.248890000000     0.862560000000    -0.108426   
O166     O      0.747140000000     0.164380000000     0.865050000000    -0.098331   
O167     O      0.186820000000     0.836380000000     0.081230000000    -0.100114   
O168     O      0.235430000000     0.879440000000     0.003850000000    -0.121693   
O169     O      0.779230000000     0.632850000000     0.163650000000    -0.0648894  
O170     O      0.797490000000     0.565620000000     0.214370000000    -0.0836447  
O171     O      0.453710000000     0.731840000000     0.167660000000    -0.0983808  
O172     O      0.436080000000     0.675090000000     0.244650000000    -0.0742563  
O173     O      0.819100000000     0.884070000000     0.710560000000    -0.1024     
O174     O      0.732960000000     0.890150000000     0.677840000000    -0.0917702  
O175     O      0.267410000000     0.384650000000     0.455770000000    -0.105834   
O176     O      0.314280000000     0.399650000000     0.538140000000    -0.107171   
O177     O      0.898130000000     0.169900000000     0.656790000000    -0.10464    
O178     O      0.921000000000     0.105920000000     0.709040000000    -0.106058   
O179     O      0.192460000000     0.935610000000     0.452780000000    -0.0844095  
O180     O      0.227120000000     0.870940000000     0.486510000000    -0.106171   
O181     O      0.957580000000     0.666030000000     0.424330000000    -0.0966414  
O182     O      0.028880000000     0.739790000000     0.368890000000    -0.0744619  
O183     O      0.038440000000     0.249790000000     0.537250000000    -0.0945142  
O184     O      0.099440000000     0.218570000000     0.498870000000    -0.0889439  
O185     O      0.213220000000     0.220550000000     0.723970000000    -0.0965581  
O186     O      0.275200000000     0.230210000000     0.797400000000    -0.0749104  
O187     O      0.211250000000     0.027830000000     0.218270000000    -0.0865799  
O188     O      0.144720000000     0.926390000000     0.244140000000    -0.0896171  
O189     O      0.906020000000     0.788330000000     0.999000000000    -0.112256   
O190     O      0.828320000000     0.734410000000     0.936060000000    -0.116447   
O191     O      0.317580000000     0.171270000000     0.115340000000    -0.0979313  
O192     O      0.318280000000     0.200990000000     0.198960000000    -0.112134   
O193     O      0.715110000000     0.946530000000     0.083210000000    -0.093188   
O194     O      0.708710000000     0.915000000000     0.169660000000    -0.105353   
O195     O      0.306230000000     0.213960000000     0.952450000000    -0.119807   
O196     O      0.365870000000     0.242140000000     0.880610000000    -0.0843535  
O197     O      0.047380000000     0.727890000000     0.179840000000    -0.0546352  
O198     O      0.942050000000     0.697720000000     0.179910000000    -0.0855336  
O199     O      0.849370000000     0.133210000000     0.990470000000    -0.102686   
O200     O      0.898570000000     0.110060000000     0.929770000000    -0.0777364  


