data_structure

_audit_creation_method RASPA-1.0
_audit_creation_date 2023-5-19
_audit_author_name 'Poobodin Mano'

_cell_length_a    32.2422
_cell_length_b    32.4905
_cell_length_c    20.6837
_cell_angle_alpha 90
_cell_angle_beta  90
_cell_angle_gamma 90
_cell_volume      21667.5

_symmetry_cell_setting          triclinic
_symmetry_space_group_name_Hall 'P 1'
_symmetry_space_group_name_H-M  'P 1'
_symmetry_Int_Tables_number     1

_symmetry_equiv_pos_as_xyz 'x,y,z'

loop_
_atom_site_label
_atom_site_type_symbol
_atom_site_fract_x
_atom_site_fract_y
_atom_site_fract_z
_atom_site_charge
C1       C      0.397560000000     0.394310000000     0.293640000000     0.393537   
C2       C      0.062350000000     0.062670000000     0.295920000000     0.394555   
C3       C      0.041760000000     0.421860000000     0.353000000000     0.396598   
C4       C      0.419200000000     0.032710000000     0.361790000000     0.390059   
C5       C      0.389750000000     0.065840000000     0.726150000000     0.390298   
C6       C      0.067160000000     0.396370000000     0.704650000000     0.39644    
C7       C      0.418900000000     0.416020000000     0.638280000000     0.407454   
C8       C      0.037290000000     0.045840000000     0.640090000000     0.40605    
C9       C      0.295610000000     0.285250000000     0.383370000000     0.406225   
C10      C      0.168330000000     0.168450000000     0.381510000000     0.407856   
C11      C      0.317160000000     0.139110000000     0.463700000000     0.392861   
C12      C      0.146910000000     0.314820000000     0.449520000000     0.391786   
C13      C      0.171480000000     0.289490000000     0.597770000000     0.389315   
C14      C      0.287540000000     0.166190000000     0.602590000000     0.390141   
C15      C      0.314040000000     0.309300000000     0.544850000000     0.393766   
C16      C      0.146140000000     0.148030000000     0.543710000000     0.393586   
C17      C      0.077750000000     0.132820000000     0.336520000000    -0.0162213  
C18      C      0.134710000000     0.078780000000     0.327200000000    -0.0465988  
C19      C      0.108170000000     0.164590000000     0.308950000000    -0.00956266 
C20      C      0.162630000000     0.112200000000     0.298120000000     0.0950139  
C21      C      0.127940000000     0.078030000000     0.582160000000    -0.0157858  
C22      C      0.076140000000     0.136710000000     0.590040000000    -0.0459905  
C23      C      0.092720000000     0.050190000000     0.558460000000    -0.0097393  
C24      C      0.042640000000     0.107200000000     0.564990000000     0.0945501  
C25      C      0.132690000000     0.385430000000     0.410150000000    -0.014489   
C26      C      0.074680000000     0.332320000000     0.419940000000    -0.0460703  
C27      C      0.101150000000     0.418920000000     0.428330000000    -0.0117438  
C28      C      0.045870000000     0.367500000000     0.440660000000     0.0949028  
C29      C      0.362630000000     0.033110000000     0.443150000000    -0.0129477  
C30      C      0.420400000000     0.081710000000     0.453860000000    -0.0396567  
C31      C      0.331080000000     0.067610000000     0.433500000000    -0.0109143  
C32      C      0.391610000000     0.119420000000     0.448890000000     0.0924256  
C33      C      0.328700000000     0.379290000000     0.587000000000    -0.0160647  
C34      C      0.384880000000     0.324460000000     0.584930000000    -0.0460944  
C35      C      0.360570000000     0.410460000000     0.562000000000    -0.00943707 
C36      C      0.414760000000     0.357170000000     0.558530000000     0.0947958  
C37      C      0.315600000000     0.085680000000     0.726470000000    -0.0136551  
C38      C      0.372640000000     0.138820000000     0.710910000000    -0.0393931  
C39      C      0.290050000000     0.105840000000     0.672920000000    -0.0104304  
C40      C      0.336590000000     0.168430000000     0.695120000000     0.0867832  
C41      C      0.115400000000     0.293200000000     0.679940000000    -0.0132924  
C42      C      0.171040000000     0.345080000000     0.679930000000    -0.0414814  
C43      C      0.082420000000     0.326160000000     0.667780000000    -0.0127045  
C44      C      0.140160000000     0.380250000000     0.667900000000     0.0926232  
C45      C      0.385480000000     0.324520000000     0.338460000000    -0.015728   
C46      C      0.325600000000     0.374700000000     0.321770000000    -0.0468998  
C47      C      0.357290000000     0.289850000000     0.313800000000    -0.0105388  
C48      C      0.300310000000     0.338560000000     0.295100000000     0.0952526  
C49      C      0.397560000000     0.394310000000     0.793640000000     0.393528   
C50      C      0.062350000000     0.062670000000     0.795920000000     0.394542   
C51      C      0.041760000000     0.421860000000     0.853000000000     0.39659    
C52      C      0.419200000000     0.032710000000     0.861790000000     0.390076   
C53      C      0.389750000000     0.065840000000     0.226150000000     0.390305   
C54      C      0.067160000000     0.396370000000     0.204650000000     0.396447   
C55      C      0.418900000000     0.416020000000     0.138280000000     0.407423   
C56      C      0.037290000000     0.045840000000     0.140090000000     0.40601    
C57      C      0.295610000000     0.285250000000     0.883370000000     0.4062     
C58      C      0.168330000000     0.168450000000     0.881510000000     0.407838   
C59      C      0.317160000000     0.139110000000     0.963700000000     0.392837   
C60      C      0.146910000000     0.314820000000     0.949520000000     0.391773   
C61      C      0.171480000000     0.289490000000     0.097770000000     0.389354   
C62      C      0.287540000000     0.166190000000     0.102590000000     0.390021   
C63      C      0.314040000000     0.309300000000     0.044850000000     0.393762   
C64      C      0.146140000000     0.148030000000     0.043720000000     0.393543   
C65      C      0.077750000000     0.132820000000     0.836510000000    -0.0161688  
C66      C      0.134710000000     0.078780000000     0.827200000000    -0.0465915  
C67      C      0.108170000000     0.164590000000     0.808950000000    -0.0095855  
C68      C      0.162630000000     0.112200000000     0.798120000000     0.0950073  
C69      C      0.127940000000     0.078030000000     0.082170000000    -0.0157961  
C70      C      0.076140000000     0.136710000000     0.090040000000    -0.0459878  
C71      C      0.092720000000     0.050190000000     0.058460000000    -0.00973716 
C72      C      0.042640000000     0.107200000000     0.064990000000     0.0945508  
C73      C      0.132690000000     0.385430000000     0.910150000000    -0.0145217  
C74      C      0.074680000000     0.332320000000     0.919940000000    -0.0460732  
C75      C      0.101150000000     0.418920000000     0.928330000000    -0.0117285  
C76      C      0.045870000000     0.367500000000     0.940660000000     0.0948984  
C77      C      0.362630000000     0.033110000000     0.943150000000    -0.012931   
C78      C      0.420400000000     0.081710000000     0.953860000000    -0.0398247  
C79      C      0.331080000000     0.067610000000     0.933500000000    -0.0109269  
C80      C      0.391610000000     0.119420000000     0.948890000000     0.0924444  
C81      C      0.328700000000     0.379290000000     0.087000000000    -0.0160354  
C82      C      0.384880000000     0.324460000000     0.084930000000    -0.0461198  
C83      C      0.360570000000     0.410460000000     0.062000000000    -0.0094509  
C84      C      0.414760000000     0.357170000000     0.058530000000     0.0948045  
C85      C      0.315600000000     0.085680000000     0.226470000000    -0.0136473  
C86      C      0.372640000000     0.138820000000     0.210910000000    -0.0393546  
C87      C      0.290050000000     0.105840000000     0.172920000000    -0.0104435  
C88      C      0.336590000000     0.168430000000     0.195120000000     0.0867767  
C89      C      0.115400000000     0.293200000000     0.179940000000    -0.0132886  
C90      C      0.171040000000     0.345080000000     0.179930000000    -0.0414762  
C91      C      0.082420000000     0.326160000000     0.167780000000    -0.012707   
C92      C      0.140160000000     0.380250000000     0.167900000000     0.092623   
C93      C      0.385480000000     0.324520000000     0.838460000000    -0.0157207  
C94      C      0.325600000000     0.374700000000     0.821770000000    -0.0468781  
C95      C      0.357290000000     0.289850000000     0.813800000000    -0.0105462  
C96      C      0.300310000000     0.338560000000     0.795090000000     0.095226   
C97      C      0.397560000000     0.894310000000     0.293640000000     0.393454   
C98      C      0.062350000000     0.562680000000     0.295920000000     0.394688   
C99      C      0.041760000000     0.921860000000     0.353000000000     0.396491   
C100     C      0.419200000000     0.532710000000     0.361790000000     0.390087   
C101     C      0.389750000000     0.565840000000     0.726150000000     0.390413   
C102     C      0.067160000000     0.896370000000     0.704650000000     0.396395   
C103     C      0.418900000000     0.916020000000     0.638280000000     0.407516   
C104     C      0.037290000000     0.545840000000     0.640090000000     0.406122   
C105     C      0.295610000000     0.785250000000     0.383370000000     0.406108   
C106     C      0.168330000000     0.668450000000     0.381510000000     0.408016   
C107     C      0.317160000000     0.639110000000     0.463700000000     0.392869   
C108     C      0.146910000000     0.814830000000     0.449520000000     0.391767   
C109     C      0.171480000000     0.789490000000     0.597770000000     0.389201   
C110     C      0.287540000000     0.666190000000     0.602590000000     0.390308   
C111     C      0.314040000000     0.809300000000     0.544850000000     0.393798   
C112     C      0.146140000000     0.648040000000     0.543710000000     0.393646   
C113     C      0.077750000000     0.632820000000     0.336520000000    -0.0162536  
C114     C      0.134710000000     0.578780000000     0.327200000000    -0.0464964  
C115     C      0.108170000000     0.664590000000     0.308950000000    -0.0095365  
C116     C      0.162630000000     0.612200000000     0.298120000000     0.094973   
C117     C      0.127940000000     0.578030000000     0.582160000000    -0.0157785  
C118     C      0.076140000000     0.636710000000     0.590040000000    -0.045979   
C119     C      0.092720000000     0.550190000000     0.558460000000    -0.00972545 
C120     C      0.042640000000     0.607200000000     0.564990000000     0.0945195  
C121     C      0.132690000000     0.885430000000     0.410150000000    -0.0145075  
C122     C      0.074680000000     0.832320000000     0.419940000000    -0.0460465  
C123     C      0.101150000000     0.918920000000     0.428330000000    -0.0116966  
C124     C      0.045870000000     0.867500000000     0.440660000000     0.0948841  
C125     C      0.362630000000     0.533110000000     0.443150000000    -0.0128773  
C126     C      0.420400000000     0.581710000000     0.453860000000    -0.0396411  
C127     C      0.331080000000     0.567610000000     0.433500000000    -0.0109415  
C128     C      0.391610000000     0.619420000000     0.448890000000     0.0924224  
C129     C      0.328700000000     0.879290000000     0.587000000000    -0.0160684  
C130     C      0.384880000000     0.824470000000     0.584930000000    -0.0460238  
C131     C      0.360570000000     0.910470000000     0.562000000000    -0.00942745 
C132     C      0.414760000000     0.857170000000     0.558530000000     0.0947388  
C133     C      0.315600000000     0.585680000000     0.726470000000    -0.0136201  
C134     C      0.372640000000     0.638820000000     0.710910000000    -0.0394043  
C135     C      0.290050000000     0.605840000000     0.672920000000    -0.0104721  
C136     C      0.336590000000     0.668430000000     0.695120000000     0.0868292  
C137     C      0.115400000000     0.793200000000     0.679940000000    -0.013293   
C138     C      0.171040000000     0.845080000000     0.679930000000    -0.0414703  
C139     C      0.082420000000     0.826160000000     0.667780000000    -0.0127005  
C140     C      0.140160000000     0.880250000000     0.667900000000     0.0925829  
C141     C      0.385480000000     0.824520000000     0.338460000000    -0.0157187  
C142     C      0.325600000000     0.874700000000     0.321770000000    -0.0468503  
C143     C      0.357290000000     0.789850000000     0.313800000000    -0.0105446  
C144     C      0.300310000000     0.838560000000     0.295100000000     0.0952017  
C145     C      0.397560000000     0.894310000000     0.793640000000     0.393446   
C146     C      0.062350000000     0.562680000000     0.795920000000     0.394675   
C147     C      0.041760000000     0.921860000000     0.853000000000     0.396483   
C148     C      0.419200000000     0.532710000000     0.861790000000     0.390104   
C149     C      0.389750000000     0.565840000000     0.226150000000     0.390419   
C150     C      0.067160000000     0.896370000000     0.204650000000     0.396402   
C151     C      0.418900000000     0.916020000000     0.138280000000     0.407486   
C152     C      0.037290000000     0.545840000000     0.140090000000     0.406082   
C153     C      0.295610000000     0.785250000000     0.883370000000     0.406084   
C154     C      0.168330000000     0.668450000000     0.881510000000     0.407998   
C155     C      0.317160000000     0.639110000000     0.963700000000     0.392846   
C156     C      0.146910000000     0.814830000000     0.949520000000     0.391754   
C157     C      0.171480000000     0.789490000000     0.097770000000     0.389241   
C158     C      0.287540000000     0.666190000000     0.102590000000     0.390188   
C159     C      0.314040000000     0.809300000000     0.044850000000     0.393795   
C160     C      0.146140000000     0.648040000000     0.043720000000     0.393603   
C161     C      0.077750000000     0.632820000000     0.836510000000    -0.0162011  
C162     C      0.134710000000     0.578780000000     0.827200000000    -0.0464891  
C163     C      0.108170000000     0.664590000000     0.808950000000    -0.00955934 
C164     C      0.162630000000     0.612200000000     0.798120000000     0.0949664  
C165     C      0.127940000000     0.578030000000     0.082170000000    -0.0157888  
C166     C      0.076140000000     0.636710000000     0.090040000000    -0.0459763  
C167     C      0.092720000000     0.550190000000     0.058460000000    -0.00972333 
C168     C      0.042640000000     0.607200000000     0.064990000000     0.0945203  
C169     C      0.132690000000     0.885430000000     0.910150000000    -0.0145402  
C170     C      0.074680000000     0.832320000000     0.919940000000    -0.0460494  
C171     C      0.101150000000     0.918920000000     0.928330000000    -0.0116814  
C172     C      0.045870000000     0.867500000000     0.940660000000     0.0948797  
C173     C      0.362630000000     0.533110000000     0.943150000000    -0.0128607  
C174     C      0.420400000000     0.581710000000     0.953860000000    -0.0398093  
C175     C      0.331080000000     0.567610000000     0.933500000000    -0.010954   
C176     C      0.391610000000     0.619420000000     0.948890000000     0.0924413  
C177     C      0.328700000000     0.879290000000     0.087000000000    -0.0160391  
C178     C      0.384880000000     0.824470000000     0.084930000000    -0.0460492  
C179     C      0.360570000000     0.910470000000     0.062000000000    -0.00944127 
C180     C      0.414760000000     0.857170000000     0.058530000000     0.0947475  
C181     C      0.315600000000     0.585680000000     0.226470000000    -0.0136123  
C182     C      0.372640000000     0.638820000000     0.210910000000    -0.0393659  
C183     C      0.290050000000     0.605840000000     0.172920000000    -0.0104852  
C184     C      0.336590000000     0.668430000000     0.195120000000     0.0868227  
C185     C      0.115400000000     0.793200000000     0.179940000000    -0.0132892  
C186     C      0.171040000000     0.845080000000     0.179930000000    -0.0414651  
C187     C      0.082420000000     0.826160000000     0.167780000000    -0.012703   
C188     C      0.140160000000     0.880250000000     0.167900000000     0.0925826  
C189     C      0.385480000000     0.824520000000     0.838460000000    -0.0157114  
C190     C      0.325600000000     0.874700000000     0.821770000000    -0.0468286  
C191     C      0.357290000000     0.789850000000     0.813800000000    -0.0105521  
C192     C      0.300310000000     0.838560000000     0.795090000000     0.095175   
C193     C      0.897560000000     0.394310000000     0.293640000000     0.393482   
C194     C      0.562350000000     0.062670000000     0.295920000000     0.394759   
C195     C      0.541760000000     0.421860000000     0.353000000000     0.396736   
C196     C      0.919200000000     0.032710000000     0.361790000000     0.389911   
C197     C      0.889750000000     0.065840000000     0.726150000000     0.3904     
C198     C      0.567160000000     0.396370000000     0.704650000000     0.396634   
C199     C      0.918900000000     0.416020000000     0.638280000000     0.407258   
C200     C      0.537290000000     0.045840000000     0.640090000000     0.406053   
C201     C      0.795610000000     0.285250000000     0.383370000000     0.406114   
C202     C      0.668330000000     0.168450000000     0.381510000000     0.40785    
C203     C      0.817150000000     0.139110000000     0.463700000000     0.392962   
C204     C      0.646900000000     0.314820000000     0.449520000000     0.391723   
C205     C      0.671480000000     0.289490000000     0.597770000000     0.389314   
C206     C      0.787540000000     0.166190000000     0.602590000000     0.390048   
C207     C      0.814040000000     0.309300000000     0.544850000000     0.393803   
C208     C      0.646140000000     0.148030000000     0.543710000000     0.393422   
C209     C      0.577750000000     0.132820000000     0.336520000000    -0.0161102  
C210     C      0.634710000000     0.078780000000     0.327200000000    -0.0465977  
C211     C      0.608170000000     0.164590000000     0.308950000000    -0.00960786 
C212     C      0.662630000000     0.112200000000     0.298120000000     0.0950315  
C213     C      0.627940000000     0.078030000000     0.582160000000    -0.0158183  
C214     C      0.576140000000     0.136710000000     0.590040000000    -0.0460286  
C215     C      0.592720000000     0.050190000000     0.558460000000    -0.00971081 
C216     C      0.542640000000     0.107200000000     0.564990000000     0.0945005  
C217     C      0.632690000000     0.385430000000     0.410150000000    -0.0144866  
C218     C      0.574680000000     0.332320000000     0.419940000000    -0.0461228  
C219     C      0.601150000000     0.418920000000     0.428330000000    -0.0116824  
C220     C      0.545870000000     0.367500000000     0.440660000000     0.0948296  
C221     C      0.862630000000     0.033110000000     0.443150000000    -0.0129363  
C222     C      0.920400000000     0.081710000000     0.453860000000    -0.0395776  
C223     C      0.831080000000     0.067610000000     0.433500000000    -0.0109172  
C224     C      0.891610000000     0.119420000000     0.448890000000     0.0923462  
C225     C      0.828700000000     0.379290000000     0.587000000000    -0.0160557  
C226     C      0.884880000000     0.324460000000     0.584930000000    -0.0460058  
C227     C      0.860570000000     0.410460000000     0.562000000000    -0.009397   
C228     C      0.914760000000     0.357170000000     0.558530000000     0.0946202  
C229     C      0.815600000000     0.085680000000     0.726470000000    -0.0136374  
C230     C      0.872640000000     0.138820000000     0.710910000000    -0.0393273  
C231     C      0.790050000000     0.105840000000     0.672920000000    -0.0104322  
C232     C      0.836590000000     0.168430000000     0.695120000000     0.0867594  
C233     C      0.615400000000     0.293200000000     0.679940000000    -0.0133467  
C234     C      0.671050000000     0.345080000000     0.679930000000    -0.041532   
C235     C      0.582420000000     0.326160000000     0.667780000000    -0.012592   
C236     C      0.640160000000     0.380250000000     0.667900000000     0.0926472  
C237     C      0.885480000000     0.324520000000     0.338460000000    -0.0156962  
C238     C      0.825600000000     0.374700000000     0.321770000000    -0.0468933  
C239     C      0.857290000000     0.289850000000     0.313800000000    -0.0105538  
C240     C      0.800310000000     0.338560000000     0.295100000000     0.0952624  
C241     C      0.897560000000     0.394310000000     0.793640000000     0.393474   
C242     C      0.562350000000     0.062670000000     0.795920000000     0.394746   
C243     C      0.541760000000     0.421860000000     0.853000000000     0.396728   
C244     C      0.919200000000     0.032710000000     0.861790000000     0.389928   
C245     C      0.889750000000     0.065840000000     0.226150000000     0.390407   
C246     C      0.567160000000     0.396370000000     0.204650000000     0.396641   
C247     C      0.918900000000     0.416020000000     0.138280000000     0.407227   
C248     C      0.537290000000     0.045840000000     0.140090000000     0.406013   
C249     C      0.795610000000     0.285250000000     0.883370000000     0.40609    
C250     C      0.668330000000     0.168450000000     0.881510000000     0.407832   
C251     C      0.817150000000     0.139110000000     0.963700000000     0.392938   
C252     C      0.646900000000     0.314820000000     0.949520000000     0.391711   
C253     C      0.671480000000     0.289490000000     0.097770000000     0.389354   
C254     C      0.787540000000     0.166190000000     0.102590000000     0.389928   
C255     C      0.814040000000     0.309300000000     0.044850000000     0.3938     
C256     C      0.646140000000     0.148030000000     0.043720000000     0.393379   
C257     C      0.577750000000     0.132820000000     0.836510000000    -0.0160578  
C258     C      0.634710000000     0.078780000000     0.827200000000    -0.0465903  
C259     C      0.608170000000     0.164590000000     0.808950000000    -0.00963063 
C260     C      0.662630000000     0.112200000000     0.798120000000     0.0950249  
C261     C      0.627940000000     0.078030000000     0.082170000000    -0.0158287  
C262     C      0.576140000000     0.136710000000     0.090040000000    -0.0460259  
C263     C      0.592720000000     0.050190000000     0.058460000000    -0.00970864 
C264     C      0.542640000000     0.107200000000     0.064990000000     0.0945013  
C265     C      0.632690000000     0.385430000000     0.910150000000    -0.0145193  
C266     C      0.574680000000     0.332320000000     0.919940000000    -0.0461257  
C267     C      0.601150000000     0.418920000000     0.928330000000    -0.0116671  
C268     C      0.545870000000     0.367500000000     0.940660000000     0.0948252  
C269     C      0.862630000000     0.033110000000     0.943150000000    -0.0129196  
C270     C      0.920400000000     0.081710000000     0.953860000000    -0.0397456  
C271     C      0.831080000000     0.067610000000     0.933500000000    -0.0109297  
C272     C      0.891610000000     0.119420000000     0.948890000000     0.0923651  
C273     C      0.828700000000     0.379290000000     0.087000000000    -0.0160264  
C274     C      0.884880000000     0.324460000000     0.084930000000    -0.0460312  
C275     C      0.860570000000     0.410460000000     0.062000000000    -0.00941084 
C276     C      0.914760000000     0.357170000000     0.058530000000     0.094629   
C277     C      0.815600000000     0.085680000000     0.226470000000    -0.0136296  
C278     C      0.872640000000     0.138820000000     0.210910000000    -0.039289   
C279     C      0.790050000000     0.105840000000     0.172920000000    -0.0104454  
C280     C      0.836590000000     0.168430000000     0.195120000000     0.0867529  
C281     C      0.615400000000     0.293200000000     0.179940000000    -0.0133428  
C282     C      0.671050000000     0.345080000000     0.179930000000    -0.0415268  
C283     C      0.582420000000     0.326160000000     0.167780000000    -0.0125945  
C284     C      0.640160000000     0.380250000000     0.167900000000     0.0926469  
C285     C      0.885480000000     0.324520000000     0.838460000000    -0.0156889  
C286     C      0.825600000000     0.374700000000     0.821770000000    -0.0468716  
C287     C      0.857290000000     0.289850000000     0.813800000000    -0.0105612  
C288     C      0.800310000000     0.338560000000     0.795090000000     0.0952358  
C289     C      0.897560000000     0.894310000000     0.293640000000     0.3934     
C290     C      0.562350000000     0.562680000000     0.295920000000     0.394892   
C291     C      0.541760000000     0.921860000000     0.353000000000     0.396629   
C292     C      0.919200000000     0.532710000000     0.361790000000     0.389939   
C293     C      0.889750000000     0.565840000000     0.726150000000     0.390515   
C294     C      0.567160000000     0.896370000000     0.704650000000     0.396589   
C295     C      0.918900000000     0.916020000000     0.638280000000     0.40732    
C296     C      0.537290000000     0.545840000000     0.640090000000     0.406125   
C297     C      0.795610000000     0.785250000000     0.383370000000     0.405998   
C298     C      0.668330000000     0.668450000000     0.381510000000     0.40801    
C299     C      0.817150000000     0.639110000000     0.463700000000     0.39297    
C300     C      0.646900000000     0.814830000000     0.449520000000     0.391704   
C301     C      0.671480000000     0.789490000000     0.597770000000     0.389201   
C302     C      0.787540000000     0.666190000000     0.602590000000     0.390215   
C303     C      0.814040000000     0.809300000000     0.544850000000     0.393835   
C304     C      0.646140000000     0.648040000000     0.543710000000     0.393482   
C305     C      0.577750000000     0.632820000000     0.336520000000    -0.0161426  
C306     C      0.634710000000     0.578780000000     0.327200000000    -0.0464952  
C307     C      0.608170000000     0.664590000000     0.308950000000    -0.00958169 
C308     C      0.662630000000     0.612200000000     0.298120000000     0.0949905  
C309     C      0.627940000000     0.578030000000     0.582160000000    -0.0158111  
C310     C      0.576140000000     0.636710000000     0.590040000000    -0.0460169  
C311     C      0.592720000000     0.550190000000     0.558460000000    -0.00969691 
C312     C      0.542640000000     0.607200000000     0.564990000000     0.0944694  
C313     C      0.632690000000     0.885430000000     0.410150000000    -0.0145051  
C314     C      0.574680000000     0.832320000000     0.419940000000    -0.0460989  
C315     C      0.601150000000     0.918920000000     0.428330000000    -0.0116353  
C316     C      0.545870000000     0.867500000000     0.440660000000     0.0948108  
C317     C      0.862630000000     0.533110000000     0.443150000000    -0.0128659  
C318     C      0.920400000000     0.581710000000     0.453860000000    -0.039562   
C319     C      0.831080000000     0.567610000000     0.433500000000    -0.0109444  
C320     C      0.891610000000     0.619420000000     0.448890000000     0.0923431  
C321     C      0.828700000000     0.879290000000     0.587000000000    -0.0160594  
C322     C      0.884880000000     0.824470000000     0.584930000000    -0.0459354  
C323     C      0.860570000000     0.910470000000     0.562000000000    -0.00938743 
C324     C      0.914760000000     0.857170000000     0.558530000000     0.0945634  
C325     C      0.815600000000     0.585680000000     0.726470000000    -0.0136024  
C326     C      0.872640000000     0.638820000000     0.710910000000    -0.0393385  
C327     C      0.790050000000     0.605840000000     0.672920000000    -0.0104739  
C328     C      0.836590000000     0.668430000000     0.695120000000     0.0868054  
C329     C      0.615400000000     0.793200000000     0.679940000000    -0.0133472  
C330     C      0.671050000000     0.845080000000     0.679930000000    -0.0415209  
C331     C      0.582420000000     0.826160000000     0.667780000000    -0.0125881  
C332     C      0.640160000000     0.880250000000     0.667900000000     0.0926068  
C333     C      0.885480000000     0.824520000000     0.338460000000    -0.0156868  
C334     C      0.825600000000     0.874700000000     0.321770000000    -0.0468438  
C335     C      0.857290000000     0.789850000000     0.313800000000    -0.0105596  
C336     C      0.800310000000     0.838560000000     0.295100000000     0.0952115  
C337     C      0.897560000000     0.894310000000     0.793640000000     0.393392   
C338     C      0.562350000000     0.562680000000     0.795920000000     0.39488    
C339     C      0.541760000000     0.921860000000     0.853000000000     0.396621   
C340     C      0.919200000000     0.532710000000     0.861790000000     0.389956   
C341     C      0.889750000000     0.565840000000     0.226150000000     0.390521   
C342     C      0.567160000000     0.896370000000     0.204650000000     0.396596   
C343     C      0.918900000000     0.916020000000     0.138280000000     0.40729    
C344     C      0.537290000000     0.545840000000     0.140090000000     0.406085   
C345     C      0.795610000000     0.785250000000     0.883370000000     0.405973   
C346     C      0.668330000000     0.668450000000     0.881510000000     0.407992   
C347     C      0.817150000000     0.639110000000     0.963700000000     0.392947   
C348     C      0.646900000000     0.814830000000     0.949520000000     0.391692   
C349     C      0.671480000000     0.789490000000     0.097770000000     0.38924    
C350     C      0.787540000000     0.666190000000     0.102590000000     0.390095   
C351     C      0.814040000000     0.809300000000     0.044850000000     0.393832   
C352     C      0.646140000000     0.648040000000     0.043720000000     0.393439   
C353     C      0.577750000000     0.632820000000     0.836510000000    -0.0160901  
C354     C      0.634710000000     0.578780000000     0.827200000000    -0.0464879  
C355     C      0.608170000000     0.664590000000     0.808950000000    -0.00960447 
C356     C      0.662630000000     0.612200000000     0.798120000000     0.0949839  
C357     C      0.627940000000     0.578030000000     0.082170000000    -0.0158214  
C358     C      0.576140000000     0.636710000000     0.090040000000    -0.0460142  
C359     C      0.592720000000     0.550190000000     0.058460000000    -0.00969475 
C360     C      0.542640000000     0.607200000000     0.064990000000     0.0944702  
C361     C      0.632690000000     0.885430000000     0.910150000000    -0.0145378  
C362     C      0.574680000000     0.832320000000     0.919940000000    -0.0461018  
C363     C      0.601150000000     0.918920000000     0.928330000000    -0.01162    
C364     C      0.545870000000     0.867500000000     0.940660000000     0.0948065  
C365     C      0.862630000000     0.533110000000     0.943150000000    -0.0128494  
C366     C      0.920400000000     0.581710000000     0.953860000000    -0.0397302  
C367     C      0.831080000000     0.567610000000     0.933500000000    -0.0109569  
C368     C      0.891610000000     0.619420000000     0.948890000000     0.092362   
C369     C      0.828700000000     0.879290000000     0.087000000000    -0.0160301  
C370     C      0.884880000000     0.824470000000     0.084930000000    -0.0459607  
C371     C      0.860570000000     0.910470000000     0.062000000000    -0.00940126 
C372     C      0.914760000000     0.857170000000     0.058530000000     0.0945721  
C373     C      0.815600000000     0.585680000000     0.226470000000    -0.0135946  
C374     C      0.872640000000     0.638820000000     0.210910000000    -0.0393002  
C375     C      0.790050000000     0.605840000000     0.172920000000    -0.0104871  
C376     C      0.836590000000     0.668430000000     0.195120000000     0.0867989  
C377     C      0.615400000000     0.793200000000     0.179940000000    -0.0133434  
C378     C      0.671050000000     0.845080000000     0.179930000000    -0.0415157  
C379     C      0.582420000000     0.826160000000     0.167780000000    -0.0125905  
C380     C      0.640160000000     0.880250000000     0.167900000000     0.0926066  
C381     C      0.885480000000     0.824520000000     0.838460000000    -0.0156795  
C382     C      0.825600000000     0.874700000000     0.821770000000    -0.0468221  
C383     C      0.857290000000     0.789850000000     0.813800000000    -0.010567   
C384     C      0.800310000000     0.838560000000     0.795090000000     0.0951849  
Co1      Co     0.417060000000     0.978530000000     0.244750000000     0.833438   
Co2      Co     0.040190000000     0.480850000000     0.741750000000     0.842351   
Co3      Co     0.480800000000     0.419400000000     0.244910000000     0.837912   
Co4      Co     0.477510000000     0.040050000000     0.750110000000     0.836575   
Co5      Co     0.231970000000     0.288400000000     0.488080000000     0.838162   
Co6      Co     0.229960000000     0.166460000000     0.489170000000     0.837097   
Co7      Co     0.292050000000     0.226060000000     0.493470000000     0.834018   
Co8      Co     0.170110000000     0.229380000000     0.489190000000     0.838934   
Co9      Co     0.417060000000     0.978530000000     0.744750000000     0.833431   
Co10     Co     0.040190000000     0.480850000000     0.241750000000     0.84235    
Co11     Co     0.480800000000     0.419400000000     0.744910000000     0.83787    
Co12     Co     0.477510000000     0.040050000000     0.250110000000     0.836602   
Co13     Co     0.231970000000     0.288400000000     0.988090000000     0.837931   
Co14     Co     0.229960000000     0.166460000000     0.989170000000     0.836921   
Co15     Co     0.292050000000     0.226060000000     0.993460000000     0.833816   
Co16     Co     0.170110000000     0.229380000000     0.989190000000     0.838734   
Co17     Co     0.417060000000     0.478520000000     0.244750000000     0.836273   
Co18     Co     0.040190000000     0.980850000000     0.741750000000     0.83951    
Co19     Co     0.480800000000     0.919400000000     0.244910000000     0.838227   
Co20     Co     0.477510000000     0.540050000000     0.750110000000     0.834617   
Co21     Co     0.231970000000     0.788410000000     0.488080000000     0.838252   
Co22     Co     0.229960000000     0.666460000000     0.489170000000     0.837133   
Co23     Co     0.292050000000     0.726060000000     0.493470000000     0.834092   
Co24     Co     0.170110000000     0.729380000000     0.489190000000     0.838985   
Co25     Co     0.417060000000     0.478520000000     0.744750000000     0.836266   
Co26     Co     0.040190000000     0.980850000000     0.241750000000     0.839509   
Co27     Co     0.480800000000     0.919400000000     0.744910000000     0.838184   
Co28     Co     0.477510000000     0.540050000000     0.250110000000     0.834644   
Co29     Co     0.231970000000     0.788410000000     0.988090000000     0.838021   
Co30     Co     0.229960000000     0.666460000000     0.989170000000     0.836957   
Co31     Co     0.292050000000     0.726060000000     0.993460000000     0.83389    
Co32     Co     0.170110000000     0.729380000000     0.989190000000     0.838785   
Co33     Co     0.917060000000     0.978530000000     0.244750000000     0.83399    
Co34     Co     0.540190000000     0.480850000000     0.741750000000     0.838753   
Co35     Co     0.980800000000     0.419400000000     0.244910000000     0.833001   
Co36     Co     0.977510000000     0.040050000000     0.750110000000     0.831628   
Co37     Co     0.731970000000     0.288400000000     0.488080000000     0.838216   
Co38     Co     0.729970000000     0.166460000000     0.489170000000     0.837156   
Co39     Co     0.792060000000     0.226060000000     0.493470000000     0.834073   
Co40     Co     0.670120000000     0.229380000000     0.489190000000     0.838778   
Co41     Co     0.917060000000     0.978530000000     0.744750000000     0.833983   
Co42     Co     0.540190000000     0.480850000000     0.241750000000     0.838752   
Co43     Co     0.980800000000     0.419400000000     0.744910000000     0.832959   
Co44     Co     0.977510000000     0.040050000000     0.250110000000     0.831655   
Co45     Co     0.731970000000     0.288400000000     0.988090000000     0.837985   
Co46     Co     0.729970000000     0.166460000000     0.989170000000     0.836981   
Co47     Co     0.792060000000     0.226060000000     0.993460000000     0.833871   
Co48     Co     0.670120000000     0.229380000000     0.989190000000     0.838578   
Co49     Co     0.917060000000     0.478520000000     0.244750000000     0.836821   
Co50     Co     0.540190000000     0.980850000000     0.741750000000     0.835915   
Co51     Co     0.980800000000     0.919400000000     0.244910000000     0.83332    
Co52     Co     0.977510000000     0.540050000000     0.750110000000     0.829671   
Co53     Co     0.731970000000     0.788410000000     0.488080000000     0.838306   
Co54     Co     0.729970000000     0.666460000000     0.489170000000     0.837192   
Co55     Co     0.792060000000     0.726060000000     0.493470000000     0.834146   
Co56     Co     0.670120000000     0.729380000000     0.489190000000     0.838828   
Co57     Co     0.917060000000     0.478520000000     0.744750000000     0.836814   
Co58     Co     0.540190000000     0.980850000000     0.241750000000     0.835915   
Co59     Co     0.980800000000     0.919400000000     0.744910000000     0.833278   
Co60     Co     0.977510000000     0.540050000000     0.250110000000     0.829698   
Co61     Co     0.731970000000     0.788410000000     0.988090000000     0.838076   
Co62     Co     0.729970000000     0.666460000000     0.989170000000     0.837016   
Co63     Co     0.792060000000     0.726060000000     0.993460000000     0.833944   
Co64     Co     0.670120000000     0.729380000000     0.989190000000     0.838628   
H1       H      0.105060000000     0.164850000000     0.255370000000     0.0374041  
H2       H      0.046020000000     0.140600000000     0.319490000000     0.0502395  
H3       H      0.155880000000     0.113100000000     0.245310000000     0.0215782  
H4       H      0.142470000000     0.048770000000     0.304400000000     0.0596195  
H5       H      0.099880000000     0.195850000000     0.326550000000     0.046938   
H6       H      0.077850000000     0.135520000000     0.390120000000     0.0475538  
H7       H      0.141320000000     0.076160000000     0.379830000000     0.053759   
H8       H      0.225340000000     0.127900000000     0.294750000000     0.0930448  
H9       H      0.214140000000     0.088490000000     0.349150000000     0.101727   
H10      H      0.091270000000     0.052270000000     0.504790000000     0.0394068  
H11      H      0.157200000000     0.068320000000     0.558210000000     0.0492784  
H12      H      0.044110000000     0.108300000000     0.511200000000     0.0227259  
H13      H      0.069290000000     0.168260000000     0.572230000000     0.0613958  
H14      H      0.099680000000     0.017610000000     0.570810000000     0.0461359  
H15      H      0.131820000000     0.073260000000     0.635070000000     0.0468294  
H16      H      0.074770000000     0.137420000000     0.643770000000     0.0512804  
H17      H      0.978730000000     0.098710000000     0.572240000000     0.0964342  
H18      H      0.999240000000     0.130900000000     0.631650000000     0.10089    
H19      H      0.101740000000     0.422840000000     0.481780000000     0.0386583  
H20      H      0.163130000000     0.393710000000     0.431740000000     0.046861   
H21      H      0.050210000000     0.371380000000     0.493760000000     0.0203895  
H22      H      0.065980000000     0.304150000000     0.447290000000     0.06097    
H23      H      0.110740000000     0.448730000000     0.406610000000     0.046899   
H24      H      0.136590000000     0.385560000000     0.356800000000     0.0410346  
H25      H      0.069900000000     0.325920000000     0.367620000000     0.0545604  
H26      H      0.982900000000     0.382420000000     0.437850000000     0.0946312  
H27      H      0.996660000000     0.342160000000     0.386230000000     0.103267   
H28      H      0.322650000000     0.068830000000     0.381440000000     0.0439546  
H29      H      0.351440000000     0.004620000000     0.419030000000     0.0480088  
H30      H      0.397110000000     0.133760000000     0.400720000000     0.0267758  
H31      H      0.452000000000     0.090000000000     0.436690000000     0.0579665  
H32      H      0.302450000000     0.059040000000     0.460360000000     0.0470416  
H33      H      0.365090000000     0.026610000000     0.495840000000     0.0395747  
H34      H      0.423220000000     0.072860000000     0.505660000000     0.0466129  
H35      H      0.403290000000     0.179020000000     0.483290000000     0.105076   
H36      H      0.388360000000     0.143940000000     0.542690000000     0.100919   
H37      H      0.359710000000     0.410210000000     0.508200000000     0.0381636  
H38      H      0.297760000000     0.387450000000     0.567130000000     0.050465   
H39      H      0.410730000000     0.357510000000     0.505040000000     0.0205054  
H40      H      0.393160000000     0.294090000000     0.563840000000     0.0594844  
H41      H      0.351860000000     0.441970000000     0.577960000000     0.0456214  
H42      H      0.326890000000     0.382250000000     0.640490000000     0.047196   
H43      H      0.388780000000     0.322340000000     0.638280000000     0.0523073  
H44      H      0.478000000000     0.370900000000     0.560870000000     0.0996195  
H45      H      0.462960000000     0.333920000000     0.617240000000     0.103778   
H46      H      0.292130000000     0.086080000000     0.629050000000     0.0511838  
H47      H      0.309470000000     0.052020000000     0.725690000000     0.0493227  
H48      H      0.350750000000     0.194420000000     0.667870000000     0.0289095  
H49      H      0.395680000000     0.140490000000     0.670900000000     0.0498602  
H50      H      0.256810000000     0.106420000000     0.687130000000     0.0413734  
H51      H      0.304680000000     0.096860000000     0.774160000000     0.0366448  
H52      H      0.389280000000     0.149440000000     0.755010000000     0.055773   
H53      H      0.300210000000     0.211210000000     0.742300000000     0.0893215  
H54      H      0.301570000000     0.164700000000     0.780280000000     0.0903306  
H55      H      0.074570000000     0.326010000000     0.615400000000     0.045347   
H56      H      0.104760000000     0.263290000000     0.659820000000     0.0483205  
H57      H      0.140760000000     0.387060000000     0.615130000000     0.0248588  
H58      H      0.202010000000     0.353470000000     0.660240000000     0.0610884  
H59      H      0.053990000000     0.316910000000     0.694490000000     0.0471738  
H60      H      0.119000000000     0.289400000000     0.733120000000     0.0393741  
H61      H      0.174460000000     0.340950000000     0.733070000000     0.0475696  
H62      H      0.147990000000     0.443890000000     0.679360000000     0.103959   
H63      H      0.147290000000     0.416000000000     0.751870000000     0.101091   
H64      H      0.361340000000     0.287170000000     0.260520000000     0.038519   
H65      H      0.417790000000     0.317970000000     0.322900000000     0.0470899  
H66      H      0.308270000000     0.335830000000     0.242850000000     0.0215643  
H67      H      0.316620000000     0.403130000000     0.295350000000     0.0602489  
H68      H      0.367000000000     0.260070000000     0.335490000000     0.0486625  
H69      H      0.385050000000     0.324000000000     0.392220000000     0.0450772  
H70      H      0.317810000000     0.379160000000     0.373700000000     0.0543207  
H71      H      0.238800000000     0.319060000000     0.290310000000     0.0958555  
H72      H      0.246400000000     0.361270000000     0.340930000000     0.103084   
H73      H      0.105060000000     0.164850000000     0.755370000000     0.0374094  
H74      H      0.046020000000     0.140600000000     0.819490000000     0.0502163  
H75      H      0.155880000000     0.113100000000     0.745310000000     0.0215813  
H76      H      0.142470000000     0.048770000000     0.804400000000     0.0596111  
H77      H      0.099880000000     0.195850000000     0.826540000000     0.0469349  
H78      H      0.077850000000     0.135520000000     0.890130000000     0.0474974  
H79      H      0.141320000000     0.076160000000     0.879830000000     0.0537268  
H80      H      0.225340000000     0.127900000000     0.794750000000     0.0930463  
H81      H      0.214140000000     0.088490000000     0.849150000000     0.101716   
H82      H      0.091270000000     0.052270000000     0.004790000000     0.0394625  
H83      H      0.157200000000     0.068320000000     0.058210000000     0.0493098  
H84      H      0.044110000000     0.108300000000     0.011200000000     0.0227782  
H85      H      0.069290000000     0.168260000000     0.072230000000     0.0614188  
H86      H      0.099680000000     0.017610000000     0.070810000000     0.0461628  
H87      H      0.131820000000     0.073260000000     0.135070000000     0.0468334  
H88      H      0.074770000000     0.137420000000     0.143770000000     0.0512766  
H89      H      0.978730000000     0.098710000000     0.072240000000     0.0964584  
H90      H      0.999240000000     0.130900000000     0.131650000000     0.100894   
H91      H      0.101740000000     0.422840000000     0.981780000000     0.0386076  
H92      H      0.163130000000     0.393710000000     0.931740000000     0.0468439  
H93      H      0.050210000000     0.371380000000     0.993750000000     0.0203377  
H94      H      0.065980000000     0.304150000000     0.947290000000     0.060943   
H95      H      0.110740000000     0.448730000000     0.906610000000     0.0468743  
H96      H      0.136590000000     0.385560000000     0.856810000000     0.0410453  
H97      H      0.069900000000     0.325920000000     0.867620000000     0.0545586  
H98      H      0.982900000000     0.382420000000     0.937840000000     0.0945993  
H99      H      0.996660000000     0.342160000000     0.886230000000     0.103224   
H100     H      0.322650000000     0.068830000000     0.881440000000     0.0439566  
H101     H      0.351440000000     0.004620000000     0.919030000000     0.0479818  
H102     H      0.397110000000     0.133760000000     0.900720000000     0.0267711  
H103     H      0.452000000000     0.090000000000     0.936680000000     0.0579712  
H104     H      0.302450000000     0.059040000000     0.960360000000     0.0470106  
H105     H      0.365090000000     0.026610000000     0.995850000000     0.0395027  
H106     H      0.423220000000     0.072860000000     0.005670000000     0.0467595  
H107     H      0.403290000000     0.179020000000     0.983290000000     0.105047   
H108     H      0.388360000000     0.143940000000     0.042690000000     0.101038   
H109     H      0.359710000000     0.410210000000     0.008200000000     0.0382204  
H110     H      0.297760000000     0.387450000000     0.067130000000     0.0504859  
H111     H      0.410730000000     0.357510000000     0.005040000000     0.0205625  
H112     H      0.393160000000     0.294090000000     0.063840000000     0.0595185  
H113     H      0.351860000000     0.441970000000     0.077960000000     0.0456526  
H114     H      0.326890000000     0.382250000000     0.140500000000     0.0471881  
H115     H      0.388780000000     0.322340000000     0.138270000000     0.0523226  
H116     H      0.478000000000     0.370900000000     0.060870000000     0.0996632  
H117     H      0.462960000000     0.333920000000     0.117240000000     0.103753   
H118     H      0.292130000000     0.086080000000     0.129050000000     0.0512092  
H119     H      0.309470000000     0.052020000000     0.225690000000     0.0493275  
H120     H      0.350750000000     0.194420000000     0.167870000000     0.0289162  
H121     H      0.395680000000     0.140490000000     0.170890000000     0.0498549  
H122     H      0.256810000000     0.106420000000     0.187130000000     0.0413769  
H123     H      0.304680000000     0.096860000000     0.274160000000     0.0366429  
H124     H      0.389280000000     0.149440000000     0.255020000000     0.0557631  
H125     H      0.300210000000     0.211210000000     0.242300000000     0.0893216  
H126     H      0.301570000000     0.164700000000     0.280280000000     0.0903285  
H127     H      0.074570000000     0.326010000000     0.115400000000     0.0453846  
H128     H      0.104760000000     0.263290000000     0.159830000000     0.0483252  
H129     H      0.140760000000     0.387060000000     0.115130000000     0.0248946  
H130     H      0.202010000000     0.353470000000     0.160240000000     0.0610979  
H131     H      0.053990000000     0.316910000000     0.194490000000     0.0471806  
H132     H      0.119000000000     0.289400000000     0.233120000000     0.03937    
H133     H      0.174460000000     0.340950000000     0.233070000000     0.0475662  
H134     H      0.147990000000     0.443890000000     0.179360000000     0.103971   
H135     H      0.147290000000     0.416000000000     0.251870000000     0.101092   
H136     H      0.361340000000     0.287170000000     0.760520000000     0.0385196  
H137     H      0.417790000000     0.317970000000     0.822900000000     0.0470799  
H138     H      0.308270000000     0.335830000000     0.742850000000     0.0215603  
H139     H      0.316620000000     0.403130000000     0.795350000000     0.0602377  
H140     H      0.367000000000     0.260070000000     0.835490000000     0.0486572  
H141     H      0.385050000000     0.324000000000     0.892220000000     0.0450381  
H142     H      0.317810000000     0.379160000000     0.873700000000     0.0542871  
H143     H      0.238800000000     0.319060000000     0.790310000000     0.0958578  
H144     H      0.246400000000     0.361270000000     0.840930000000     0.103075   
H145     H      0.105060000000     0.664850000000     0.255370000000     0.0374095  
H146     H      0.046020000000     0.640600000000     0.319490000000     0.0502566  
H147     H      0.155880000000     0.613100000000     0.245310000000     0.0215502  
H148     H      0.142470000000     0.548770000000     0.304400000000     0.0592878  
H149     H      0.099880000000     0.695850000000     0.326550000000     0.0469465  
H150     H      0.077850000000     0.635520000000     0.390120000000     0.0475488  
H151     H      0.141320000000     0.576160000000     0.379830000000     0.0535814  
H152     H      0.225340000000     0.627900000000     0.294750000000     0.0930804  
H153     H      0.214140000000     0.588490000000     0.349150000000     0.101578   
H154     H      0.091270000000     0.552270000000     0.504790000000     0.0391667  
H155     H      0.157200000000     0.568320000000     0.558210000000     0.0490855  
H156     H      0.044110000000     0.608300000000     0.511200000000     0.0226895  
H157     H      0.069290000000     0.668260000000     0.572230000000     0.0614101  
H158     H      0.099680000000     0.517620000000     0.570810000000     0.0456634  
H159     H      0.131820000000     0.573250000000     0.635070000000     0.0467018  
H160     H      0.074770000000     0.637420000000     0.643770000000     0.0512893  
H161     H      0.978730000000     0.598710000000     0.572240000000     0.0963104  
H162     H      0.999240000000     0.630900000000     0.631650000000     0.100918   
H163     H      0.101740000000     0.922840000000     0.481780000000     0.0383756  
H164     H      0.163130000000     0.893710000000     0.431740000000     0.0467014  
H165     H      0.050210000000     0.871380000000     0.493760000000     0.0203281  
H166     H      0.065980000000     0.804150000000     0.447290000000     0.060974   
H167     H      0.110740000000     0.948730000000     0.406610000000     0.0464695  
H168     H      0.136590000000     0.885560000000     0.356800000000     0.0409841  
H169     H      0.069900000000     0.825920000000     0.367620000000     0.0545722  
H170     H      0.982900000000     0.882420000000     0.437850000000     0.0945077  
H171     H      0.996660000000     0.842160000000     0.386230000000     0.103269   
H172     H      0.322650000000     0.568830000000     0.381440000000     0.0438731  
H173     H      0.351440000000     0.504620000000     0.419030000000     0.0475132  
H174     H      0.397110000000     0.633760000000     0.400720000000     0.0267954  
H175     H      0.452000000000     0.590000000000     0.436690000000     0.0578998  
H176     H      0.302450000000     0.559040000000     0.460360000000     0.0468463  
H177     H      0.365090000000     0.526610000000     0.495840000000     0.0391794  
H178     H      0.423220000000     0.572860000000     0.505660000000     0.0464591  
H179     H      0.403290000000     0.679020000000     0.483290000000     0.10509    
H180     H      0.388360000000     0.643940000000     0.542690000000     0.100906   
H181     H      0.359710000000     0.910200000000     0.508200000000     0.0379218  
H182     H      0.297760000000     0.887450000000     0.567130000000     0.0503103  
H183     H      0.410730000000     0.857510000000     0.505040000000     0.0204725  
H184     H      0.393160000000     0.794090000000     0.563840000000     0.0594693  
H185     H      0.351860000000     0.941970000000     0.577960000000     0.0452114  
H186     H      0.326890000000     0.882250000000     0.640490000000     0.0471254  
H187     H      0.388780000000     0.822340000000     0.638280000000     0.0523016  
H188     H      0.478000000000     0.870900000000     0.560870000000     0.0995367  
H189     H      0.462960000000     0.833920000000     0.617240000000     0.103783   
H190     H      0.292130000000     0.586080000000     0.629050000000     0.0510349  
H191     H      0.309470000000     0.552020000000     0.725690000000     0.0490442  
H192     H      0.350750000000     0.694420000000     0.667870000000     0.0289111  
H193     H      0.395680000000     0.640490000000     0.670900000000     0.0498549  
H194     H      0.256810000000     0.606420000000     0.687130000000     0.0413046  
H195     H      0.304680000000     0.596850000000     0.774160000000     0.0365927  
H196     H      0.389280000000     0.649440000000     0.755010000000     0.0557948  
H197     H      0.300210000000     0.711210000000     0.742300000000     0.0893364  
H198     H      0.301570000000     0.664700000000     0.780280000000     0.0903393  
H199     H      0.074570000000     0.826010000000     0.615400000000     0.0453359  
H200     H      0.104760000000     0.763290000000     0.659820000000     0.0483344  
H201     H      0.140760000000     0.887060000000     0.615130000000     0.0247464  
H202     H      0.202010000000     0.853470000000     0.660240000000     0.0610211  
H203     H      0.053990000000     0.816910000000     0.694490000000     0.047185   
H204     H      0.119000000000     0.789400000000     0.733120000000     0.0393882  
H205     H      0.174460000000     0.840950000000     0.733070000000     0.0475555  
H206     H      0.147990000000     0.943890000000     0.679360000000     0.103523   
H207     H      0.147290000000     0.916010000000     0.751870000000     0.100926   
H208     H      0.361340000000     0.787170000000     0.260520000000     0.0385345  
H209     H      0.417790000000     0.817970000000     0.322900000000     0.0470967  
H210     H      0.308270000000     0.835830000000     0.242850000000     0.0215645  
H211     H      0.316620000000     0.903130000000     0.295350000000     0.0600079  
H212     H      0.367000000000     0.760070000000     0.335490000000     0.0486763  
H213     H      0.385050000000     0.823990000000     0.392220000000     0.0450563  
H214     H      0.317810000000     0.879160000000     0.373700000000     0.0541636  
H215     H      0.238800000000     0.819060000000     0.290310000000     0.0958123  
H216     H      0.246400000000     0.861270000000     0.340930000000     0.103006   
H217     H      0.105060000000     0.664850000000     0.755370000000     0.0374148  
H218     H      0.046020000000     0.640600000000     0.819490000000     0.0502333  
H219     H      0.155880000000     0.613100000000     0.745310000000     0.0215533  
H220     H      0.142470000000     0.548770000000     0.804400000000     0.0592795  
H221     H      0.099880000000     0.695850000000     0.826540000000     0.0469434  
H222     H      0.077850000000     0.635520000000     0.890130000000     0.0474924  
H223     H      0.141320000000     0.576160000000     0.879830000000     0.0535492  
H224     H      0.225340000000     0.627900000000     0.794750000000     0.093082   
H225     H      0.214140000000     0.588490000000     0.849150000000     0.101568   
H226     H      0.091270000000     0.552270000000     0.004790000000     0.0392225  
H227     H      0.157200000000     0.568320000000     0.058210000000     0.049117   
H228     H      0.044110000000     0.608300000000     0.011200000000     0.0227418  
H229     H      0.069290000000     0.668260000000     0.072230000000     0.0614332  
H230     H      0.099680000000     0.517620000000     0.070810000000     0.0456903  
H231     H      0.131820000000     0.573250000000     0.135070000000     0.0467058  
H232     H      0.074770000000     0.637420000000     0.143770000000     0.0512855  
H233     H      0.978730000000     0.598710000000     0.072240000000     0.0963347  
H234     H      0.999240000000     0.630900000000     0.131650000000     0.100922   
H235     H      0.101740000000     0.922840000000     0.981780000000     0.0383249  
H236     H      0.163130000000     0.893710000000     0.931740000000     0.0466843  
H237     H      0.050210000000     0.871380000000     0.993750000000     0.0202764  
H238     H      0.065980000000     0.804150000000     0.947290000000     0.060947   
H239     H      0.110740000000     0.948730000000     0.906610000000     0.0464449  
H240     H      0.136590000000     0.885560000000     0.856810000000     0.0409948  
H241     H      0.069900000000     0.825920000000     0.867620000000     0.0545705  
H242     H      0.982900000000     0.882420000000     0.937840000000     0.0944758  
H243     H      0.996660000000     0.842160000000     0.886230000000     0.103227   
H244     H      0.322650000000     0.568830000000     0.881440000000     0.0438751  
H245     H      0.351440000000     0.504620000000     0.919030000000     0.0474862  
H246     H      0.397110000000     0.633760000000     0.900720000000     0.0267907  
H247     H      0.452000000000     0.590000000000     0.936680000000     0.0579045  
H248     H      0.302450000000     0.559040000000     0.960360000000     0.0468154  
H249     H      0.365090000000     0.526610000000     0.995850000000     0.0391074  
H250     H      0.423220000000     0.572860000000     0.005670000000     0.0466058  
H251     H      0.403290000000     0.679020000000     0.983290000000     0.105061   
H252     H      0.388360000000     0.643940000000     0.042690000000     0.101025   
H253     H      0.359710000000     0.910200000000     0.008200000000     0.0379786  
H254     H      0.297760000000     0.887450000000     0.067130000000     0.0503313  
H255     H      0.410730000000     0.857510000000     0.005040000000     0.0205296  
H256     H      0.393160000000     0.794090000000     0.063840000000     0.0595033  
H257     H      0.351860000000     0.941970000000     0.077960000000     0.0452426  
H258     H      0.326890000000     0.882250000000     0.140500000000     0.0471175  
H259     H      0.388780000000     0.822340000000     0.138270000000     0.0523169  
H260     H      0.478000000000     0.870900000000     0.060870000000     0.0995804  
H261     H      0.462960000000     0.833920000000     0.117240000000     0.103758   
H262     H      0.292130000000     0.586080000000     0.129050000000     0.0510603  
H263     H      0.309470000000     0.552020000000     0.225690000000     0.049049   
H264     H      0.350750000000     0.694420000000     0.167870000000     0.0289177  
H265     H      0.395680000000     0.640490000000     0.170890000000     0.0498496  
H266     H      0.256810000000     0.606420000000     0.187130000000     0.0413081  
H267     H      0.304680000000     0.596850000000     0.274160000000     0.0365908  
H268     H      0.389280000000     0.649440000000     0.255020000000     0.0557849  
H269     H      0.300210000000     0.711210000000     0.242300000000     0.0893365  
H270     H      0.301570000000     0.664700000000     0.280280000000     0.0903373  
H271     H      0.074570000000     0.826010000000     0.115400000000     0.0453735  
H272     H      0.104760000000     0.763290000000     0.159830000000     0.0483391  
H273     H      0.140760000000     0.887060000000     0.115130000000     0.0247822  
H274     H      0.202010000000     0.853470000000     0.160240000000     0.0610305  
H275     H      0.053990000000     0.816910000000     0.194490000000     0.0471918  
H276     H      0.119000000000     0.789400000000     0.233120000000     0.0393841  
H277     H      0.174460000000     0.840950000000     0.233070000000     0.0475521  
H278     H      0.147990000000     0.943890000000     0.179360000000     0.103535   
H279     H      0.147290000000     0.916010000000     0.251870000000     0.100928   
H280     H      0.361340000000     0.787170000000     0.760520000000     0.0385351  
H281     H      0.417790000000     0.817970000000     0.822900000000     0.0470867  
H282     H      0.308270000000     0.835830000000     0.742850000000     0.0215605  
H283     H      0.316620000000     0.903130000000     0.795350000000     0.0599967  
H284     H      0.367000000000     0.760070000000     0.835490000000     0.0486711  
H285     H      0.385050000000     0.823990000000     0.892220000000     0.0450172  
H286     H      0.317810000000     0.879160000000     0.873700000000     0.0541301  
H287     H      0.238800000000     0.819060000000     0.790310000000     0.0958146  
H288     H      0.246400000000     0.861270000000     0.840930000000     0.102997   
H289     H      0.605060000000     0.164850000000     0.255370000000     0.0372698  
H290     H      0.546010000000     0.140600000000     0.319490000000     0.0495845  
H291     H      0.655880000000     0.113100000000     0.245310000000     0.0215846  
H292     H      0.642470000000     0.048770000000     0.304400000000     0.059636   
H293     H      0.599880000000     0.195850000000     0.326550000000     0.0467242  
H294     H      0.577850000000     0.135520000000     0.390120000000     0.0472576  
H295     H      0.641320000000     0.076160000000     0.379830000000     0.0537326  
H296     H      0.725340000000     0.127900000000     0.294750000000     0.0930591  
H297     H      0.714140000000     0.088490000000     0.349150000000     0.101745   
H298     H      0.591270000000     0.052270000000     0.504790000000     0.0391966  
H299     H      0.657200000000     0.068320000000     0.558210000000     0.0493019  
H300     H      0.544110000000     0.108300000000     0.511200000000     0.0221814  
H301     H      0.569290000000     0.168260000000     0.572230000000     0.0610203  
H302     H      0.599680000000     0.017610000000     0.570810000000     0.0460028  
H303     H      0.631820000000     0.073260000000     0.635070000000     0.0468609  
H304     H      0.574770000000     0.137420000000     0.643770000000     0.0509506  
H305     H      0.478730000000     0.098710000000     0.572240000000     0.0989609  
H306     H      0.499240000000     0.130900000000     0.631650000000     0.103892   
H307     H      0.601740000000     0.422840000000     0.481780000000     0.0384778  
H308     H      0.663130000000     0.393710000000     0.431740000000     0.0468776  
H309     H      0.550210000000     0.371380000000     0.493760000000     0.0198209  
H310     H      0.565980000000     0.304150000000     0.447290000000     0.0605397  
H311     H      0.610740000000     0.448730000000     0.406610000000     0.0468129  
H312     H      0.636590000000     0.385560000000     0.356800000000     0.0410507  
H313     H      0.569910000000     0.325920000000     0.367620000000     0.0541719  
H314     H      0.482900000000     0.382420000000     0.437850000000     0.0971435  
H315     H      0.496660000000     0.342160000000     0.386230000000     0.106169   
H316     H      0.822650000000     0.068830000000     0.381440000000     0.0439731  
H317     H      0.851440000000     0.004620000000     0.419030000000     0.0479881  
H318     H      0.897110000000     0.133760000000     0.400720000000     0.0265991  
H319     H      0.952000000000     0.090000000000     0.436690000000     0.0572391  
H320     H      0.802450000000     0.059040000000     0.460360000000     0.0470633  
H321     H      0.865090000000     0.026610000000     0.495840000000     0.0395064  
H322     H      0.923220000000     0.072860000000     0.505660000000     0.046339   
H323     H      0.903290000000     0.179020000000     0.483290000000     0.104772   
H324     H      0.888360000000     0.143940000000     0.542690000000     0.100829   
H325     H      0.859710000000     0.410210000000     0.508200000000     0.0381128  
H326     H      0.797760000000     0.387450000000     0.567130000000     0.050483   
H327     H      0.910730000000     0.357510000000     0.505040000000     0.0203811  
H328     H      0.893160000000     0.294090000000     0.563840000000     0.0592459  
H329     H      0.851860000000     0.441970000000     0.577960000000     0.0455901  
H330     H      0.826890000000     0.382250000000     0.640490000000     0.0472173  
H331     H      0.888780000000     0.322340000000     0.638280000000     0.0521893  
H332     H      0.978000000000     0.370900000000     0.560870000000     0.0986882  
H333     H      0.962960000000     0.333920000000     0.617240000000     0.103088   
H334     H      0.792130000000     0.086080000000     0.629050000000     0.0511938  
H335     H      0.809470000000     0.052020000000     0.725690000000     0.049337   
H336     H      0.850750000000     0.194420000000     0.667870000000     0.0288223  
H337     H      0.895680000000     0.140490000000     0.670900000000     0.0496368  
H338     H      0.756810000000     0.106420000000     0.687130000000     0.0413963  
H339     H      0.804680000000     0.096860000000     0.774160000000     0.0366531  
H340     H      0.889280000000     0.149440000000     0.755010000000     0.0555399  
H341     H      0.800210000000     0.211210000000     0.742300000000     0.0893295  
H342     H      0.801570000000     0.164700000000     0.780280000000     0.0903379  
H343     H      0.574570000000     0.326010000000     0.615400000000     0.0449333  
H344     H      0.604760000000     0.263290000000     0.659820000000     0.0481249  
H345     H      0.640760000000     0.387060000000     0.615130000000     0.0248122  
H346     H      0.702010000000     0.353470000000     0.660240000000     0.0611307  
H347     H      0.553990000000     0.316910000000     0.694490000000     0.0465536  
H348     H      0.619000000000     0.289400000000     0.733120000000     0.0392905  
H349     H      0.674460000000     0.340950000000     0.733070000000     0.0475971  
H350     H      0.647990000000     0.443890000000     0.679360000000     0.103981   
H351     H      0.647290000000     0.416000000000     0.751870000000     0.101125   
H352     H      0.861340000000     0.287170000000     0.260520000000     0.0384311  
H353     H      0.917790000000     0.317970000000     0.322900000000     0.0467513  
H354     H      0.808270000000     0.335830000000     0.242850000000     0.021574   
H355     H      0.816620000000     0.403130000000     0.295350000000     0.0602673  
H356     H      0.867000000000     0.260070000000     0.335490000000     0.0485147  
H357     H      0.885040000000     0.324000000000     0.392220000000     0.0449498  
H358     H      0.817810000000     0.379160000000     0.373700000000     0.0543213  
H359     H      0.738800000000     0.319060000000     0.290310000000     0.0958731  
H360     H      0.746400000000     0.361270000000     0.340930000000     0.103102   
H361     H      0.605060000000     0.164850000000     0.755370000000     0.037275   
H362     H      0.546010000000     0.140600000000     0.819490000000     0.0495613  
H363     H      0.655880000000     0.113100000000     0.745310000000     0.0215877  
H364     H      0.642470000000     0.048770000000     0.804400000000     0.0596277  
H365     H      0.599880000000     0.195850000000     0.826540000000     0.0467211  
H366     H      0.577850000000     0.135520000000     0.890130000000     0.0472012  
H367     H      0.641320000000     0.076160000000     0.879830000000     0.0537003  
H368     H      0.725340000000     0.127900000000     0.794750000000     0.0930606  
H369     H      0.714140000000     0.088490000000     0.849150000000     0.101735   
H370     H      0.591270000000     0.052270000000     0.004790000000     0.0392524  
H371     H      0.657200000000     0.068320000000     0.058210000000     0.0493334  
H372     H      0.544110000000     0.108300000000     0.011200000000     0.0222337  
H373     H      0.569290000000     0.168260000000     0.072230000000     0.0610434  
H374     H      0.599680000000     0.017610000000     0.070810000000     0.0460297  
H375     H      0.631820000000     0.073260000000     0.135070000000     0.0468649  
H376     H      0.574770000000     0.137420000000     0.143770000000     0.0509469  
H377     H      0.478730000000     0.098710000000     0.072240000000     0.0989851  
H378     H      0.499240000000     0.130900000000     0.131650000000     0.103896   
H379     H      0.601740000000     0.422840000000     0.981780000000     0.0384271  
H380     H      0.663130000000     0.393710000000     0.931740000000     0.0468604  
H381     H      0.550210000000     0.371380000000     0.993750000000     0.0197692  
H382     H      0.565980000000     0.304150000000     0.947290000000     0.0605127  
H383     H      0.610740000000     0.448730000000     0.906610000000     0.0467882  
H384     H      0.636590000000     0.385560000000     0.856810000000     0.0410613  
H385     H      0.569910000000     0.325920000000     0.867620000000     0.0541702  
H386     H      0.482900000000     0.382420000000     0.937840000000     0.0971114  
H387     H      0.496660000000     0.342160000000     0.886230000000     0.106127   
H388     H      0.822650000000     0.068830000000     0.881440000000     0.0439751  
H389     H      0.851440000000     0.004620000000     0.919030000000     0.0479611  
H390     H      0.897110000000     0.133760000000     0.900720000000     0.0265944  
H391     H      0.952000000000     0.090000000000     0.936680000000     0.0572439  
H392     H      0.802450000000     0.059040000000     0.960360000000     0.0470324  
H393     H      0.865090000000     0.026610000000     0.995850000000     0.0394345  
H394     H      0.923220000000     0.072860000000     0.005670000000     0.0464855  
H395     H      0.903290000000     0.179020000000     0.983290000000     0.104743   
H396     H      0.888360000000     0.143940000000     0.042690000000     0.100948   
H397     H      0.859710000000     0.410210000000     0.008200000000     0.0381695  
H398     H      0.797760000000     0.387450000000     0.067130000000     0.0505039  
H399     H      0.910730000000     0.357510000000     0.005040000000     0.0204381  
H400     H      0.893160000000     0.294090000000     0.063840000000     0.0592799  
H401     H      0.851860000000     0.441970000000     0.077960000000     0.0456213  
H402     H      0.826890000000     0.382250000000     0.140500000000     0.0472094  
H403     H      0.888780000000     0.322340000000     0.138270000000     0.0522047  
H404     H      0.978000000000     0.370900000000     0.060870000000     0.0987319  
H405     H      0.962960000000     0.333920000000     0.117240000000     0.103063   
H406     H      0.792130000000     0.086080000000     0.129050000000     0.0512193  
H407     H      0.809470000000     0.052020000000     0.225690000000     0.0493419  
H408     H      0.850750000000     0.194420000000     0.167870000000     0.0288289  
H409     H      0.895680000000     0.140490000000     0.170890000000     0.0496315  
H410     H      0.756810000000     0.106420000000     0.187130000000     0.0413997  
H411     H      0.804680000000     0.096860000000     0.274160000000     0.0366511  
H412     H      0.889280000000     0.149440000000     0.255020000000     0.05553    
H413     H      0.800210000000     0.211210000000     0.242300000000     0.0893296  
H414     H      0.801570000000     0.164700000000     0.280280000000     0.0903359  
H415     H      0.574570000000     0.326010000000     0.115400000000     0.044971   
H416     H      0.604760000000     0.263290000000     0.159830000000     0.0481296  
H417     H      0.640760000000     0.387060000000     0.115130000000     0.024848   
H418     H      0.702010000000     0.353470000000     0.160240000000     0.0611402  
H419     H      0.553990000000     0.316910000000     0.194490000000     0.0465604  
H420     H      0.619000000000     0.289400000000     0.233120000000     0.0392864  
H421     H      0.674460000000     0.340950000000     0.233070000000     0.0475937  
H422     H      0.647990000000     0.443890000000     0.179360000000     0.103993   
H423     H      0.647290000000     0.416000000000     0.251870000000     0.101126   
H424     H      0.861340000000     0.287170000000     0.760520000000     0.0384316  
H425     H      0.917790000000     0.317970000000     0.822900000000     0.0467413  
H426     H      0.808270000000     0.335830000000     0.742850000000     0.02157    
H427     H      0.816620000000     0.403130000000     0.795350000000     0.0602561  
H428     H      0.867000000000     0.260070000000     0.835490000000     0.0485095  
H429     H      0.885040000000     0.324000000000     0.892220000000     0.0449107  
H430     H      0.817810000000     0.379160000000     0.873700000000     0.0542877  
H431     H      0.738800000000     0.319060000000     0.790310000000     0.0958754  
H432     H      0.746400000000     0.361270000000     0.840930000000     0.103094   
H433     H      0.605060000000     0.664850000000     0.255370000000     0.0372752  
H434     H      0.546010000000     0.640600000000     0.319490000000     0.0496015  
H435     H      0.655880000000     0.613100000000     0.245310000000     0.0215566  
H436     H      0.642470000000     0.548770000000     0.304400000000     0.0593043  
H437     H      0.599880000000     0.695850000000     0.326550000000     0.0467328  
H438     H      0.577850000000     0.635520000000     0.390120000000     0.0472526  
H439     H      0.641320000000     0.576160000000     0.379830000000     0.053555   
H440     H      0.725340000000     0.627900000000     0.294750000000     0.0930948  
H441     H      0.714140000000     0.588490000000     0.349150000000     0.101597   
H442     H      0.591270000000     0.552270000000     0.504790000000     0.0389563  
H443     H      0.657200000000     0.568320000000     0.558210000000     0.0491091  
H444     H      0.544110000000     0.608300000000     0.511200000000     0.0221449  
H445     H      0.569290000000     0.668260000000     0.572230000000     0.0610346  
H446     H      0.599680000000     0.517620000000     0.570810000000     0.04553    
H447     H      0.631820000000     0.573250000000     0.635070000000     0.0467333  
H448     H      0.574770000000     0.637420000000     0.643770000000     0.0509595  
H449     H      0.478730000000     0.598710000000     0.572240000000     0.0988365  
H450     H      0.499240000000     0.630900000000     0.631650000000     0.10392    
H451     H      0.601740000000     0.922840000000     0.481780000000     0.0381954  
H452     H      0.663130000000     0.893710000000     0.431740000000     0.0467181  
H453     H      0.550210000000     0.871380000000     0.493760000000     0.0197599  
H454     H      0.565980000000     0.804150000000     0.447290000000     0.0605438  
H455     H      0.610740000000     0.948730000000     0.406610000000     0.0463837  
H456     H      0.636590000000     0.885560000000     0.356800000000     0.0410002  
H457     H      0.569910000000     0.825920000000     0.367620000000     0.054184   
H458     H      0.482900000000     0.882420000000     0.437850000000     0.0970174  
H459     H      0.496660000000     0.842160000000     0.386230000000     0.10617    
H460     H      0.822650000000     0.568830000000     0.381440000000     0.0438916  
H461     H      0.851440000000     0.504620000000     0.419030000000     0.0474927  
H462     H      0.897110000000     0.633760000000     0.400720000000     0.0266188  
H463     H      0.952000000000     0.590000000000     0.436690000000     0.0571725  
H464     H      0.802450000000     0.559040000000     0.460360000000     0.0468681  
H465     H      0.865090000000     0.526610000000     0.495840000000     0.0391114  
H466     H      0.923220000000     0.572860000000     0.505660000000     0.0461853  
H467     H      0.903290000000     0.679020000000     0.483290000000     0.104786   
H468     H      0.888360000000     0.643940000000     0.542690000000     0.100816   
H469     H      0.859710000000     0.910200000000     0.508200000000     0.0378714  
H470     H      0.797760000000     0.887450000000     0.567130000000     0.0503285  
H471     H      0.910730000000     0.857510000000     0.505040000000     0.0203483  
H472     H      0.893160000000     0.794090000000     0.563840000000     0.0592308  
H473     H      0.851860000000     0.941970000000     0.577960000000     0.0451808  
H474     H      0.826890000000     0.882250000000     0.640490000000     0.0471467  
H475     H      0.888780000000     0.822340000000     0.638280000000     0.0521837  
H476     H      0.978000000000     0.870900000000     0.560870000000     0.0986064  
H477     H      0.962960000000     0.833920000000     0.617240000000     0.103093   
H478     H      0.792130000000     0.586080000000     0.629050000000     0.051045   
H479     H      0.809470000000     0.552020000000     0.725690000000     0.0490587  
H480     H      0.850750000000     0.694420000000     0.667870000000     0.0288238  
H481     H      0.895680000000     0.640490000000     0.670900000000     0.0496315  
H482     H      0.756810000000     0.606420000000     0.687130000000     0.0413275  
H483     H      0.804680000000     0.596850000000     0.774160000000     0.036601   
H484     H      0.889280000000     0.649440000000     0.755010000000     0.0555618  
H485     H      0.800210000000     0.711210000000     0.742300000000     0.0893444  
H486     H      0.801570000000     0.664700000000     0.780280000000     0.0903467  
H487     H      0.574570000000     0.826010000000     0.615400000000     0.0449225  
H488     H      0.604760000000     0.763290000000     0.659820000000     0.0481389  
H489     H      0.640760000000     0.887060000000     0.615130000000     0.0246999  
H490     H      0.702010000000     0.853470000000     0.660240000000     0.0610634  
H491     H      0.553990000000     0.816910000000     0.694490000000     0.0465651  
H492     H      0.619000000000     0.789400000000     0.733120000000     0.0393047  
H493     H      0.674460000000     0.840950000000     0.733070000000     0.047583   
H494     H      0.647990000000     0.943890000000     0.679360000000     0.103546   
H495     H      0.647290000000     0.916010000000     0.751870000000     0.10096    
H496     H      0.861340000000     0.787170000000     0.260520000000     0.0384466  
H497     H      0.917790000000     0.817970000000     0.322900000000     0.0467582  
H498     H      0.808270000000     0.835830000000     0.242850000000     0.0215742  
H499     H      0.816620000000     0.903130000000     0.295350000000     0.0600265  
H500     H      0.867000000000     0.760070000000     0.335490000000     0.0485287  
H501     H      0.885040000000     0.823990000000     0.392220000000     0.0449289  
H502     H      0.817810000000     0.879160000000     0.373700000000     0.0541644  
H503     H      0.738800000000     0.819060000000     0.290310000000     0.0958299  
H504     H      0.746400000000     0.861270000000     0.340930000000     0.103024   
H505     H      0.605060000000     0.664850000000     0.755370000000     0.0372804  
H506     H      0.546010000000     0.640600000000     0.819490000000     0.0495783  
H507     H      0.655880000000     0.613100000000     0.745310000000     0.0215597  
H508     H      0.642470000000     0.548770000000     0.804400000000     0.059296   
H509     H      0.599880000000     0.695850000000     0.826540000000     0.0467297  
H510     H      0.577850000000     0.635520000000     0.890130000000     0.0471962  
H511     H      0.641320000000     0.576160000000     0.879830000000     0.0535227  
H512     H      0.725340000000     0.627900000000     0.794750000000     0.0930963  
H513     H      0.714140000000     0.588490000000     0.849150000000     0.101587   
H514     H      0.591270000000     0.552270000000     0.004790000000     0.0390122  
H515     H      0.657200000000     0.568320000000     0.058210000000     0.0491405  
H516     H      0.544110000000     0.608300000000     0.011200000000     0.0221973  
H517     H      0.569290000000     0.668260000000     0.072230000000     0.0610578  
H518     H      0.599680000000     0.517620000000     0.070810000000     0.0455569  
H519     H      0.631820000000     0.573250000000     0.135070000000     0.0467373  
H520     H      0.574770000000     0.637420000000     0.143770000000     0.0509558  
H521     H      0.478730000000     0.598710000000     0.072240000000     0.0988608  
H522     H      0.499240000000     0.630900000000     0.131650000000     0.103924   
H523     H      0.601740000000     0.922840000000     0.981780000000     0.0381447  
H524     H      0.663130000000     0.893710000000     0.931740000000     0.046701   
H525     H      0.550210000000     0.871380000000     0.993750000000     0.0197083  
H526     H      0.565980000000     0.804150000000     0.947290000000     0.0605168  
H527     H      0.610740000000     0.948730000000     0.906610000000     0.0463591  
H528     H      0.636590000000     0.885560000000     0.856810000000     0.0410109  
H529     H      0.569910000000     0.825920000000     0.867620000000     0.0541823  
H530     H      0.482900000000     0.882420000000     0.937840000000     0.0969854  
H531     H      0.496660000000     0.842160000000     0.886230000000     0.106127   
H532     H      0.822650000000     0.568830000000     0.881440000000     0.0438936  
H533     H      0.851440000000     0.504620000000     0.919030000000     0.0474657  
H534     H      0.897110000000     0.633760000000     0.900720000000     0.0266141  
H535     H      0.952000000000     0.590000000000     0.936680000000     0.0571773  
H536     H      0.802450000000     0.559040000000     0.960360000000     0.0468372  
H537     H      0.865090000000     0.526610000000     0.995850000000     0.0390395  
H538     H      0.923220000000     0.572860000000     0.005670000000     0.0463319  
H539     H      0.903290000000     0.679020000000     0.983290000000     0.104757   
H540     H      0.888360000000     0.643940000000     0.042690000000     0.100935   
H541     H      0.859710000000     0.910200000000     0.008200000000     0.0379282  
H542     H      0.797760000000     0.887450000000     0.067130000000     0.0503494  
H543     H      0.910730000000     0.857510000000     0.005040000000     0.0204054  
H544     H      0.893160000000     0.794090000000     0.063840000000     0.0592648  
H545     H      0.851860000000     0.941970000000     0.077960000000     0.0452119  
H546     H      0.826890000000     0.882250000000     0.140500000000     0.0471388  
H547     H      0.888780000000     0.822340000000     0.138270000000     0.052199   
H548     H      0.978000000000     0.870900000000     0.060870000000     0.0986501  
H549     H      0.962960000000     0.833920000000     0.117240000000     0.103068   
H550     H      0.792130000000     0.586080000000     0.129050000000     0.0510705  
H551     H      0.809470000000     0.552020000000     0.225690000000     0.0490635  
H552     H      0.850750000000     0.694420000000     0.167870000000     0.0288304  
H553     H      0.895680000000     0.640490000000     0.170890000000     0.0496262  
H554     H      0.756810000000     0.606420000000     0.187130000000     0.0413309  
H555     H      0.804680000000     0.596850000000     0.274160000000     0.0365991  
H556     H      0.889280000000     0.649440000000     0.255020000000     0.0555519  
H557     H      0.800210000000     0.711210000000     0.242300000000     0.0893445  
H558     H      0.801570000000     0.664700000000     0.280280000000     0.0903446  
H559     H      0.574570000000     0.826010000000     0.115400000000     0.0449602  
H560     H      0.604760000000     0.763290000000     0.159830000000     0.0481436  
H561     H      0.640760000000     0.887060000000     0.115130000000     0.0247357  
H562     H      0.702010000000     0.853470000000     0.160240000000     0.0610728  
H563     H      0.553990000000     0.816910000000     0.194490000000     0.0465719  
H564     H      0.619000000000     0.789400000000     0.233120000000     0.0393005  
H565     H      0.674460000000     0.840950000000     0.233070000000     0.0475795  
H566     H      0.647990000000     0.943890000000     0.179360000000     0.103557   
H567     H      0.647290000000     0.916010000000     0.251870000000     0.100962   
H568     H      0.861340000000     0.787170000000     0.760520000000     0.0384472  
H569     H      0.917790000000     0.817970000000     0.822900000000     0.0467482  
H570     H      0.808270000000     0.835830000000     0.742850000000     0.0215702  
H571     H      0.816620000000     0.903130000000     0.795350000000     0.0600154  
H572     H      0.867000000000     0.760070000000     0.835490000000     0.0485234  
H573     H      0.885040000000     0.823990000000     0.892220000000     0.0448899  
H574     H      0.817810000000     0.879160000000     0.873700000000     0.0541309  
H575     H      0.738800000000     0.819060000000     0.790310000000     0.0958322  
H576     H      0.746400000000     0.861270000000     0.840930000000     0.103016   
N1       N      0.150410000000     0.151990000000     0.327220000000    -0.179822   
N2       N      0.090590000000     0.090480000000     0.318790000000    -0.160141   
N3       N      0.206830000000     0.102260000000     0.304890000000    -0.198144   
N4       N      0.053520000000     0.065060000000     0.586650000000    -0.178576   
N5       N      0.117700000000     0.121820000000     0.570390000000    -0.160209   
N6       N      0.000990000000     0.120920000000     0.583630000000    -0.192986   
N7       N      0.059560000000     0.405660000000     0.407760000000    -0.177251   
N8       N      0.118660000000     0.343830000000     0.430030000000    -0.159359   
N9       N      0.002120000000     0.356920000000     0.430360000000    -0.193218   
N10      N      0.346430000000     0.108910000000     0.453300000000    -0.173975   
N11      N      0.402730000000     0.046950000000     0.418500000000    -0.160378   
N12      N      0.404490000000     0.148540000000     0.499380000000    -0.196988   
N13      N      0.401880000000     0.397700000000     0.584680000000    -0.17977    
N14      N      0.341580000000     0.336710000000     0.570860000000    -0.160156   
N15      N      0.458190000000     0.346270000000     0.571130000000    -0.196455   
N16      N      0.303840000000     0.147910000000     0.656590000000    -0.17578    
N17      N      0.359900000000     0.095550000000     0.719240000000    -0.158125   
N18      N      0.319000000000     0.186090000000     0.754280000000    -0.193477   
N19      N      0.096700000000     0.368170000000     0.685620000000    -0.175427   
N20      N      0.154770000000     0.306990000000     0.652030000000    -0.160744   
N21      N      0.155520000000     0.416420000000     0.702980000000    -0.196816   
N22      N      0.314110000000     0.300840000000     0.328890000000    -0.17969    
N23      N      0.370450000000     0.365350000000     0.316400000000    -0.160397   
N24      N      0.255500000000     0.346140000000     0.298600000000    -0.198054   
N25      N      0.150410000000     0.151990000000     0.827220000000    -0.179816   
N26      N      0.090590000000     0.090480000000     0.818790000000    -0.160155   
N27      N      0.206830000000     0.102260000000     0.804890000000    -0.198143   
N28      N      0.053520000000     0.065060000000     0.086640000000    -0.178541   
N29      N      0.117700000000     0.121820000000     0.070390000000    -0.160204   
N30      N      0.000990000000     0.120920000000     0.083630000000    -0.192973   
N31      N      0.059560000000     0.405660000000     0.907760000000    -0.177261   
N32      N      0.118660000000     0.343830000000     0.930040000000    -0.15937    
N33      N      0.002120000000     0.356920000000     0.930370000000    -0.193216   
N34      N      0.346430000000     0.108910000000     0.953300000000    -0.173993   
N35      N      0.402730000000     0.046950000000     0.918500000000    -0.160376   
N36      N      0.404490000000     0.148540000000     0.999380000000    -0.197101   
N37      N      0.401880000000     0.397700000000     0.084680000000    -0.179756   
N38      N      0.341580000000     0.336710000000     0.070860000000    -0.160144   
N39      N      0.458190000000     0.346270000000     0.071120000000    -0.196419   
N40      N      0.303840000000     0.147910000000     0.156600000000    -0.175735   
N41      N      0.359900000000     0.095550000000     0.219240000000    -0.15813    
N42      N      0.319000000000     0.186090000000     0.254280000000    -0.193476   
N43      N      0.096700000000     0.368170000000     0.185620000000    -0.175422   
N44      N      0.154770000000     0.306990000000     0.152020000000    -0.160767   
N45      N      0.155520000000     0.416420000000     0.202980000000    -0.196814   
N46      N      0.314110000000     0.300840000000     0.828890000000    -0.179679   
N47      N      0.370450000000     0.365350000000     0.816400000000    -0.160407   
N48      N      0.255500000000     0.346140000000     0.798600000000    -0.198048   
N49      N      0.150410000000     0.651990000000     0.327220000000    -0.179838   
N50      N      0.090590000000     0.590470000000     0.318790000000    -0.160281   
N51      N      0.206830000000     0.602270000000     0.304890000000    -0.198204   
N52      N      0.053520000000     0.565060000000     0.586650000000    -0.178682   
N53      N      0.117700000000     0.621820000000     0.570390000000    -0.160184   
N54      N      0.000990000000     0.620930000000     0.583630000000    -0.192952   
N55      N      0.059560000000     0.905660000000     0.407760000000    -0.177329   
N56      N      0.118660000000     0.843830000000     0.430030000000    -0.159395   
N57      N      0.002120000000     0.856920000000     0.430360000000    -0.193206   
N58      N      0.346430000000     0.608910000000     0.453300000000    -0.173979   
N59      N      0.402730000000     0.546950000000     0.418500000000    -0.160518   
N60      N      0.404490000000     0.648540000000     0.499380000000    -0.196982   
N61      N      0.401880000000     0.897710000000     0.584680000000    -0.179867   
N62      N      0.341580000000     0.836710000000     0.570860000000    -0.160171   
N63      N      0.458190000000     0.846270000000     0.571130000000    -0.196437   
N64      N      0.303840000000     0.647920000000     0.656590000000    -0.175835   
N65      N      0.359900000000     0.595550000000     0.719240000000    -0.158175   
N66      N      0.319000000000     0.686090000000     0.754280000000    -0.193476   
N67      N      0.096700000000     0.868170000000     0.685620000000    -0.175427   
N68      N      0.154770000000     0.806990000000     0.652030000000    -0.160721   
N69      N      0.155520000000     0.916420000000     0.702980000000    -0.196841   
N70      N      0.314110000000     0.800840000000     0.328890000000    -0.179658   
N71      N      0.370450000000     0.865350000000     0.316400000000    -0.160425   
N72      N      0.255500000000     0.846150000000     0.298600000000    -0.198051   
N73      N      0.150410000000     0.651990000000     0.827220000000    -0.179832   
N74      N      0.090590000000     0.590470000000     0.818790000000    -0.160295   
N75      N      0.206830000000     0.602270000000     0.804890000000    -0.198203   
N76      N      0.053520000000     0.565060000000     0.086640000000    -0.178646   
N77      N      0.117700000000     0.621820000000     0.070390000000    -0.16018    
N78      N      0.000990000000     0.620930000000     0.083630000000    -0.192939   
N79      N      0.059560000000     0.905660000000     0.907760000000    -0.177339   
N80      N      0.118660000000     0.843830000000     0.930040000000    -0.159406   
N81      N      0.002120000000     0.856920000000     0.930370000000    -0.193204   
N82      N      0.346430000000     0.608910000000     0.953300000000    -0.173997   
N83      N      0.402730000000     0.546950000000     0.918500000000    -0.160516   
N84      N      0.404490000000     0.648540000000     0.999380000000    -0.197096   
N85      N      0.401880000000     0.897710000000     0.084680000000    -0.179854   
N86      N      0.341580000000     0.836710000000     0.070860000000    -0.160159   
N87      N      0.458190000000     0.846270000000     0.071120000000    -0.196401   
N88      N      0.303840000000     0.647920000000     0.156600000000    -0.175791   
N89      N      0.359900000000     0.595550000000     0.219240000000    -0.15818    
N90      N      0.319000000000     0.686090000000     0.254280000000    -0.193475   
N91      N      0.096700000000     0.868170000000     0.185620000000    -0.175422   
N92      N      0.154770000000     0.806990000000     0.152020000000    -0.160744   
N93      N      0.155520000000     0.916420000000     0.202980000000    -0.196838   
N94      N      0.314110000000     0.800840000000     0.828890000000    -0.179647   
N95      N      0.370450000000     0.865350000000     0.816400000000    -0.160434   
N96      N      0.255500000000     0.846150000000     0.798600000000    -0.198046   
N97      N      0.650410000000     0.151990000000     0.327220000000    -0.179812   
N98      N      0.590590000000     0.090480000000     0.318790000000    -0.160274   
N99      N      0.706830000000     0.102260000000     0.304890000000    -0.198136   
N100     N      0.553520000000     0.065060000000     0.586650000000    -0.178948   
N101     N      0.617690000000     0.121820000000     0.570390000000    -0.160134   
N102     N      0.500990000000     0.120920000000     0.583630000000    -0.196812   
N103     N      0.559570000000     0.405660000000     0.407760000000    -0.177591   
N104     N      0.618660000000     0.343830000000     0.430030000000    -0.159383   
N105     N      0.502120000000     0.356920000000     0.430360000000    -0.197084   
N106     N      0.846430000000     0.108910000000     0.453300000000    -0.173933   
N107     N      0.902730000000     0.046950000000     0.418500000000    -0.16048    
N108     N      0.904490000000     0.148540000000     0.499380000000    -0.197131   
N109     N      0.901870000000     0.397700000000     0.584680000000    -0.179766   
N110     N      0.841580000000     0.336710000000     0.570860000000    -0.160168   
N111     N      0.958190000000     0.346270000000     0.571130000000    -0.19658    
N112     N      0.803840000000     0.147910000000     0.656590000000    -0.175753   
N113     N      0.859900000000     0.095550000000     0.719240000000    -0.158164   
N114     N      0.819000000000     0.186090000000     0.754280000000    -0.193499   
N115     N      0.596700000000     0.368170000000     0.685620000000    -0.175553   
N116     N      0.654770000000     0.306990000000     0.652030000000    -0.160726   
N117     N      0.655520000000     0.416420000000     0.702980000000    -0.196814   
N118     N      0.814110000000     0.300840000000     0.328890000000    -0.179665   
N119     N      0.870450000000     0.365350000000     0.316400000000    -0.160412   
N120     N      0.755500000000     0.346140000000     0.298600000000    -0.198046   
N121     N      0.650410000000     0.151990000000     0.827220000000    -0.179806   
N122     N      0.590590000000     0.090480000000     0.818790000000    -0.160288   
N123     N      0.706830000000     0.102260000000     0.804890000000    -0.198135   
N124     N      0.553520000000     0.065060000000     0.086640000000    -0.178912   
N125     N      0.617690000000     0.121820000000     0.070390000000    -0.16013    
N126     N      0.500990000000     0.120920000000     0.083630000000    -0.196799   
N127     N      0.559570000000     0.405660000000     0.907760000000    -0.177601   
N128     N      0.618660000000     0.343830000000     0.930040000000    -0.159394   
N129     N      0.502120000000     0.356920000000     0.930370000000    -0.197081   
N130     N      0.846430000000     0.108910000000     0.953300000000    -0.173951   
N131     N      0.902730000000     0.046950000000     0.918500000000    -0.160478   
N132     N      0.904490000000     0.148540000000     0.999380000000    -0.197244   
N133     N      0.901870000000     0.397700000000     0.084680000000    -0.179752   
N134     N      0.841580000000     0.336710000000     0.070860000000    -0.160156   
N135     N      0.958190000000     0.346270000000     0.071120000000    -0.196545   
N136     N      0.803840000000     0.147910000000     0.156600000000    -0.175709   
N137     N      0.859900000000     0.095550000000     0.219240000000    -0.158168   
N138     N      0.819000000000     0.186090000000     0.254280000000    -0.193498   
N139     N      0.596700000000     0.368170000000     0.185620000000    -0.175548   
N140     N      0.654770000000     0.306990000000     0.152020000000    -0.160749   
N141     N      0.655520000000     0.416420000000     0.202980000000    -0.196811   
N142     N      0.814110000000     0.300840000000     0.828890000000    -0.179654   
N143     N      0.870450000000     0.365350000000     0.816400000000    -0.160421   
N144     N      0.755500000000     0.346140000000     0.798600000000    -0.198041   
N145     N      0.650410000000     0.651990000000     0.327220000000    -0.179827   
N146     N      0.590590000000     0.590470000000     0.318790000000    -0.160414   
N147     N      0.706830000000     0.602270000000     0.304890000000    -0.198196   
N148     N      0.553520000000     0.565060000000     0.586650000000    -0.179053   
N149     N      0.617690000000     0.621820000000     0.570390000000    -0.160109   
N150     N      0.500990000000     0.620930000000     0.583630000000    -0.196777   
N151     N      0.559570000000     0.905660000000     0.407760000000    -0.177668   
N152     N      0.618660000000     0.843830000000     0.430030000000    -0.159418   
N153     N      0.502120000000     0.856920000000     0.430360000000    -0.197069   
N154     N      0.846430000000     0.608910000000     0.453300000000    -0.173938   
N155     N      0.902730000000     0.546950000000     0.418500000000    -0.160619   
N156     N      0.904490000000     0.648540000000     0.499380000000    -0.197125   
N157     N      0.901870000000     0.897710000000     0.584680000000    -0.179863   
N158     N      0.841580000000     0.836710000000     0.570860000000    -0.160183   
N159     N      0.958190000000     0.846270000000     0.571130000000    -0.196562   
N160     N      0.803840000000     0.647920000000     0.656590000000    -0.175809   
N161     N      0.859900000000     0.595550000000     0.719240000000    -0.158214   
N162     N      0.819000000000     0.686090000000     0.754280000000    -0.193497   
N163     N      0.596700000000     0.868170000000     0.685620000000    -0.175553   
N164     N      0.654770000000     0.806990000000     0.652030000000    -0.160703   
N165     N      0.655520000000     0.916420000000     0.702980000000    -0.196838   
N166     N      0.814110000000     0.800840000000     0.328890000000    -0.179633   
N167     N      0.870450000000     0.865350000000     0.316400000000    -0.16044    
N168     N      0.755500000000     0.846150000000     0.298600000000    -0.198044   
N169     N      0.650410000000     0.651990000000     0.827220000000    -0.179822   
N170     N      0.590590000000     0.590470000000     0.818790000000    -0.160428   
N171     N      0.706830000000     0.602270000000     0.804890000000    -0.198195   
N172     N      0.553520000000     0.565060000000     0.086640000000    -0.179018   
N173     N      0.617690000000     0.621820000000     0.070390000000    -0.160105   
N174     N      0.500990000000     0.620930000000     0.083630000000    -0.196764   
N175     N      0.559570000000     0.905660000000     0.907760000000    -0.177679   
N176     N      0.618660000000     0.843830000000     0.930040000000    -0.159429   
N177     N      0.502120000000     0.856920000000     0.930370000000    -0.197066   
N178     N      0.846430000000     0.608910000000     0.953300000000    -0.173956   
N179     N      0.902730000000     0.546950000000     0.918500000000    -0.160618   
N180     N      0.904490000000     0.648540000000     0.999380000000    -0.197239   
N181     N      0.901870000000     0.897710000000     0.084680000000    -0.17985    
N182     N      0.841580000000     0.836710000000     0.070860000000    -0.160171   
N183     N      0.958190000000     0.846270000000     0.071120000000    -0.196527   
N184     N      0.803840000000     0.647920000000     0.156600000000    -0.175765   
N185     N      0.859900000000     0.595550000000     0.219240000000    -0.158218   
N186     N      0.819000000000     0.686090000000     0.254280000000    -0.193496   
N187     N      0.596700000000     0.868170000000     0.185620000000    -0.175548   
N188     N      0.654770000000     0.806990000000     0.152020000000    -0.160725   
N189     N      0.655520000000     0.916420000000     0.202980000000    -0.196835   
N190     N      0.814110000000     0.800840000000     0.828890000000    -0.179622   
N191     N      0.870450000000     0.865350000000     0.816400000000    -0.160449   
N192     N      0.755500000000     0.846150000000     0.798600000000    -0.198038   
O1       O      0.384110000000     0.430070000000     0.278650000000    -0.366545   
O2       O      0.074390000000     0.026480000000     0.280930000000    -0.368526   
O3       O      0.010050000000     0.404590000000     0.328140000000    -0.381229   
O4       O      0.451170000000     0.050380000000     0.337920000000    -0.37634    
O5       O      0.058390000000     0.453040000000     0.325410000000    -0.377423   
O6       O      0.400970000000     0.003530000000     0.331440000000    -0.369345   
O7       O      0.024560000000     0.073580000000     0.288240000000    -0.365145   
O8       O      0.435750000000     0.384910000000     0.286280000000    -0.371674   
O9       O      0.379190000000     0.028000000000     0.731280000000    -0.358988   
O10      O      0.076740000000     0.434230000000     0.710780000000    -0.371238   
O11      O      0.450550000000     0.400050000000     0.665220000000    -0.37835    
O12      O      0.006550000000     0.061580000000     0.670030000000    -0.372396   
O13      O      0.054420000000     0.012940000000     0.660920000000    -0.371427   
O14      O      0.401570000000     0.447960000000     0.662460000000    -0.37233    
O15      O      0.427860000000     0.076590000000     0.730410000000    -0.363963   
O16      O      0.030060000000     0.384390000000     0.716480000000    -0.363373   
O17      O      0.478380000000     0.480220000000     0.218090000000    -0.585858   
O18      O      0.263530000000     0.302760000000     0.406670000000    -0.377778   
O19      O      0.199540000000     0.150800000000     0.407300000000    -0.380065   
O20      O      0.328350000000     0.176570000000     0.471490000000    -0.364648   
O21      O      0.134880000000     0.277960000000     0.460580000000    -0.361033   
O22      O      0.278790000000     0.129190000000     0.467700000000    -0.363296   
O23      O      0.184920000000     0.324980000000     0.457080000000    -0.36566    
O24      O      0.152130000000     0.200290000000     0.407490000000    -0.374373   
O25      O      0.311940000000     0.254330000000     0.411870000000    -0.372297   
O26      O      0.203460000000     0.305750000000     0.571500000000    -0.373499   
O27      O      0.257770000000     0.148430000000     0.572610000000    -0.37095    
O28      O      0.325600000000     0.272340000000     0.533480000000    -0.368587   
O29      O      0.135970000000     0.185380000000     0.532950000000    -0.369863   
O30      O      0.182260000000     0.134690000000     0.529130000000    -0.368777   
O31      O      0.277330000000     0.321250000000     0.531270000000    -0.369689   
O32      O      0.153810000000     0.258230000000     0.572340000000    -0.373153   
O33      O      0.304050000000     0.199010000000     0.580120000000    -0.379626   
O34      O      0.231470000000     0.227340000000     0.462750000000    -0.585444   
O35      O      0.384110000000     0.430070000000     0.778650000000    -0.36655    
O36      O      0.074390000000     0.026480000000     0.780930000000    -0.368527   
O37      O      0.010050000000     0.404590000000     0.828140000000    -0.38123    
O38      O      0.451170000000     0.050380000000     0.837930000000    -0.376345   
O39      O      0.058390000000     0.453040000000     0.825410000000    -0.377429   
O40      O      0.400970000000     0.003530000000     0.831440000000    -0.369362   
O41      O      0.024560000000     0.073580000000     0.788230000000    -0.365154   
O42      O      0.435750000000     0.384910000000     0.786280000000    -0.37168    
O43      O      0.379190000000     0.028000000000     0.231280000000    -0.358983   
O44      O      0.076740000000     0.434230000000     0.210780000000    -0.371234   
O45      O      0.450550000000     0.400050000000     0.165230000000    -0.378346   
O46      O      0.006550000000     0.061580000000     0.170030000000    -0.372392   
O47      O      0.054420000000     0.012940000000     0.160920000000    -0.371409   
O48      O      0.401570000000     0.447960000000     0.162460000000    -0.372308   
O49      O      0.427860000000     0.076590000000     0.230410000000    -0.363958   
O50      O      0.030060000000     0.384390000000     0.216480000000    -0.363373   
O51      O      0.478380000000     0.480220000000     0.718090000000    -0.585859   
O52      O      0.263530000000     0.302760000000     0.906670000000    -0.37774    
O53      O      0.199540000000     0.150800000000     0.907300000000    -0.380062   
O54      O      0.328350000000     0.176570000000     0.971490000000    -0.364678   
O55      O      0.134880000000     0.277960000000     0.960580000000    -0.361049   
O56      O      0.278790000000     0.129190000000     0.967700000000    -0.363312   
O57      O      0.184920000000     0.324980000000     0.957080000000    -0.365659   
O58      O      0.152130000000     0.200290000000     0.907490000000    -0.374364   
O59      O      0.311940000000     0.254330000000     0.911870000000    -0.372324   
O60      O      0.203460000000     0.305750000000     0.071500000000    -0.373433   
O61      O      0.257770000000     0.148430000000     0.072600000000    -0.370823   
O62      O      0.325600000000     0.272340000000     0.033480000000    -0.368463   
O63      O      0.135970000000     0.185380000000     0.032950000000    -0.369734   
O64      O      0.182260000000     0.134690000000     0.029130000000    -0.368643   
O65      O      0.277330000000     0.321250000000     0.031280000000    -0.369587   
O66      O      0.153810000000     0.258230000000     0.072340000000    -0.373064   
O67      O      0.304050000000     0.199010000000     0.080120000000    -0.379461   
O68      O      0.231470000000     0.227340000000     0.962750000000    -0.585381   
O69      O      0.384110000000     0.930070000000     0.278650000000    -0.366592   
O70      O      0.074390000000     0.526480000000     0.280930000000    -0.369608   
O71      O      0.010050000000     0.904590000000     0.328140000000    -0.381281   
O72      O      0.451170000000     0.550380000000     0.337920000000    -0.376454   
O73      O      0.058390000000     0.953040000000     0.325410000000    -0.377605   
O74      O      0.400970000000     0.503530000000     0.331440000000    -0.370519   
O75      O      0.024560000000     0.573580000000     0.288240000000    -0.365162   
O76      O      0.435750000000     0.884910000000     0.286280000000    -0.37168    
O77      O      0.379190000000     0.528000000000     0.731280000000    -0.359975   
O78      O      0.076740000000     0.934230000000     0.710780000000    -0.371266   
O79      O      0.450550000000     0.900050000000     0.665220000000    -0.378405   
O80      O      0.006550000000     0.561580000000     0.670030000000    -0.372487   
O81      O      0.054420000000     0.512940000000     0.660920000000    -0.372664   
O82      O      0.401570000000     0.947950000000     0.662460000000    -0.372474   
O83      O      0.427860000000     0.576590000000     0.730410000000    -0.363925   
O84      O      0.030060000000     0.884390000000     0.716480000000    -0.363368   
O85      O      0.478380000000     0.980220000000     0.218090000000    -0.586375   
O86      O      0.263530000000     0.802760000000     0.406670000000    -0.377791   
O87      O      0.199540000000     0.650800000000     0.407300000000    -0.380123   
O88      O      0.328350000000     0.676570000000     0.471490000000    -0.364643   
O89      O      0.134880000000     0.777960000000     0.460580000000    -0.360954   
O90      O      0.278790000000     0.629190000000     0.467700000000    -0.363347   
O91      O      0.184920000000     0.824980000000     0.457080000000    -0.365764   
O92      O      0.152130000000     0.700280000000     0.407490000000    -0.374449   
O93      O      0.311940000000     0.754320000000     0.411870000000    -0.372225   
O94      O      0.203460000000     0.805750000000     0.571500000000    -0.373515   
O95      O      0.257770000000     0.648440000000     0.572610000000    -0.371088   
O96      O      0.325600000000     0.772340000000     0.533480000000    -0.368595   
O97      O      0.135970000000     0.685380000000     0.532950000000    -0.369942   
O98      O      0.182260000000     0.634690000000     0.529130000000    -0.368812   
O99      O      0.277330000000     0.821250000000     0.531270000000    -0.369785   
O100     O      0.153810000000     0.758220000000     0.572340000000    -0.373079   
O101     O      0.304050000000     0.699010000000     0.580120000000    -0.379655   
O102     O      0.231470000000     0.727340000000     0.462750000000    -0.585401   
O103     O      0.384110000000     0.930070000000     0.778650000000    -0.366597   
O104     O      0.074390000000     0.526480000000     0.780930000000    -0.369608   
O105     O      0.010050000000     0.904590000000     0.828140000000    -0.381282   
O106     O      0.451170000000     0.550380000000     0.837930000000    -0.37646    
O107     O      0.058390000000     0.953040000000     0.825410000000    -0.377611   
O108     O      0.400970000000     0.503530000000     0.831440000000    -0.370536   
O109     O      0.024560000000     0.573580000000     0.788230000000    -0.365172   
O110     O      0.435750000000     0.884910000000     0.786280000000    -0.371686   
O111     O      0.379190000000     0.528000000000     0.231280000000    -0.35997    
O112     O      0.076740000000     0.934230000000     0.210780000000    -0.371261   
O113     O      0.450550000000     0.900050000000     0.165230000000    -0.378401   
O114     O      0.006550000000     0.561580000000     0.170030000000    -0.372484   
O115     O      0.054420000000     0.512940000000     0.160920000000    -0.372646   
O116     O      0.401570000000     0.947950000000     0.162460000000    -0.372452   
O117     O      0.427860000000     0.576590000000     0.230410000000    -0.36392    
O118     O      0.030060000000     0.884390000000     0.216480000000    -0.363368   
O119     O      0.478380000000     0.980220000000     0.718090000000    -0.586376   
O120     O      0.263530000000     0.802760000000     0.906670000000    -0.377753   
O121     O      0.199540000000     0.650800000000     0.907300000000    -0.380119   
O122     O      0.328350000000     0.676570000000     0.971490000000    -0.364673   
O123     O      0.134880000000     0.777960000000     0.960580000000    -0.36097    
O124     O      0.278790000000     0.629190000000     0.967700000000    -0.363363   
O125     O      0.184920000000     0.824980000000     0.957080000000    -0.365763   
O126     O      0.152130000000     0.700280000000     0.907490000000    -0.374439   
O127     O      0.311940000000     0.754320000000     0.911870000000    -0.372253   
O128     O      0.203460000000     0.805750000000     0.071500000000    -0.373449   
O129     O      0.257770000000     0.648440000000     0.072600000000    -0.37096    
O130     O      0.325600000000     0.772340000000     0.033480000000    -0.368472   
O131     O      0.135970000000     0.685380000000     0.032950000000    -0.369812   
O132     O      0.182260000000     0.634690000000     0.029130000000    -0.368678   
O133     O      0.277330000000     0.821250000000     0.031280000000    -0.369684   
O134     O      0.153810000000     0.758220000000     0.072340000000    -0.37299    
O135     O      0.304050000000     0.699010000000     0.080120000000    -0.37949    
O136     O      0.231470000000     0.727340000000     0.962750000000    -0.585339   
O137     O      0.884110000000     0.430070000000     0.278650000000    -0.366538   
O138     O      0.574390000000     0.026480000000     0.280930000000    -0.368478   
O139     O      0.510060000000     0.404590000000     0.328140000000    -0.383876   
O140     O      0.951170000000     0.050380000000     0.337920000000    -0.376628   
O141     O      0.558390000000     0.453040000000     0.325410000000    -0.377624   
O142     O      0.900970000000     0.003530000000     0.331440000000    -0.369391   
O143     O      0.524560000000     0.073580000000     0.288240000000    -0.367216   
O144     O      0.935750000000     0.384910000000     0.286280000000    -0.371699   
O145     O      0.879190000000     0.028000000000     0.731280000000    -0.359014   
O146     O      0.576740000000     0.434230000000     0.710780000000    -0.371216   
O147     O      0.950550000000     0.400050000000     0.665220000000    -0.378366   
O148     O      0.506550000000     0.061580000000     0.670030000000    -0.374999   
O149     O      0.554420000000     0.012940000000     0.660920000000    -0.37165    
O150     O      0.901570000000     0.447960000000     0.662460000000    -0.372349   
O151     O      0.927850000000     0.076590000000     0.730410000000    -0.364002   
O152     O      0.530060000000     0.384390000000     0.716480000000    -0.365391   
O153     O      0.978380000000     0.480220000000     0.218090000000    -0.586735   
O154     O      0.763520000000     0.302760000000     0.406670000000    -0.377701   
O155     O      0.699540000000     0.150800000000     0.407300000000    -0.380025   
O156     O      0.828350000000     0.176570000000     0.471490000000    -0.364737   
O157     O      0.634880000000     0.277960000000     0.460580000000    -0.361088   
O158     O      0.778790000000     0.129190000000     0.467700000000    -0.363441   
O159     O      0.684920000000     0.324980000000     0.457080000000    -0.365548   
O160     O      0.652130000000     0.200290000000     0.407490000000    -0.374387   
O161     O      0.811940000000     0.254330000000     0.411870000000    -0.372327   
O162     O      0.703460000000     0.305750000000     0.571500000000    -0.373485   
O163     O      0.757760000000     0.148430000000     0.572610000000    -0.370902   
O164     O      0.825600000000     0.272340000000     0.533480000000    -0.368688   
O165     O      0.635960000000     0.185380000000     0.532950000000    -0.369793   
O166     O      0.682260000000     0.134690000000     0.529130000000    -0.368678   
O167     O      0.777330000000     0.321250000000     0.531270000000    -0.369689   
O168     O      0.653810000000     0.258230000000     0.572340000000    -0.373176   
O169     O      0.804050000000     0.199010000000     0.580120000000    -0.379638   
O170     O      0.731470000000     0.227340000000     0.462750000000    -0.585424   
O171     O      0.884110000000     0.430070000000     0.778650000000    -0.366543   
O172     O      0.574390000000     0.026480000000     0.780930000000    -0.368478   
O173     O      0.510060000000     0.404590000000     0.828140000000    -0.383877   
O174     O      0.951170000000     0.050380000000     0.837930000000    -0.376633   
O175     O      0.558390000000     0.453040000000     0.825410000000    -0.37763    
O176     O      0.900970000000     0.003530000000     0.831440000000    -0.369408   
O177     O      0.524560000000     0.073580000000     0.788230000000    -0.367225   
O178     O      0.935750000000     0.384910000000     0.786280000000    -0.371704   
O179     O      0.879190000000     0.028000000000     0.231280000000    -0.359009   
O180     O      0.576740000000     0.434230000000     0.210780000000    -0.371212   
O181     O      0.950550000000     0.400050000000     0.165230000000    -0.378363   
O182     O      0.506550000000     0.061580000000     0.170030000000    -0.374996   
O183     O      0.554420000000     0.012940000000     0.160920000000    -0.371632   
O184     O      0.901570000000     0.447960000000     0.162460000000    -0.372327   
O185     O      0.927850000000     0.076590000000     0.230410000000    -0.363998   
O186     O      0.530060000000     0.384390000000     0.216480000000    -0.365391   
O187     O      0.978380000000     0.480220000000     0.718090000000    -0.586736   
O188     O      0.763520000000     0.302760000000     0.906670000000    -0.377663   
O189     O      0.699540000000     0.150800000000     0.907300000000    -0.380021   
O190     O      0.828350000000     0.176570000000     0.971490000000    -0.364766   
O191     O      0.634880000000     0.277960000000     0.960580000000    -0.361104   
O192     O      0.778790000000     0.129190000000     0.967700000000    -0.363457   
O193     O      0.684920000000     0.324980000000     0.957080000000    -0.365547   
O194     O      0.652130000000     0.200290000000     0.907490000000    -0.374377   
O195     O      0.811940000000     0.254330000000     0.911870000000    -0.372355   
O196     O      0.703460000000     0.305750000000     0.071500000000    -0.373419   
O197     O      0.757760000000     0.148430000000     0.072600000000    -0.370774   
O198     O      0.825600000000     0.272340000000     0.033480000000    -0.368565   
O199     O      0.635960000000     0.185380000000     0.032950000000    -0.369664   
O200     O      0.682260000000     0.134690000000     0.029130000000    -0.368545   
O201     O      0.777330000000     0.321250000000     0.031280000000    -0.369587   
O202     O      0.653810000000     0.258230000000     0.072340000000    -0.373087   
O203     O      0.804050000000     0.199010000000     0.080120000000    -0.379473   
O204     O      0.731470000000     0.227340000000     0.962750000000    -0.585362   
O205     O      0.884110000000     0.930070000000     0.278650000000    -0.366586   
O206     O      0.574390000000     0.526480000000     0.280930000000    -0.369559   
O207     O      0.510060000000     0.904590000000     0.328140000000    -0.383925   
O208     O      0.951170000000     0.550380000000     0.337920000000    -0.376742   
O209     O      0.558390000000     0.953040000000     0.325410000000    -0.377806   
O210     O      0.900970000000     0.503530000000     0.331440000000    -0.370563   
O211     O      0.524560000000     0.573580000000     0.288240000000    -0.367234   
O212     O      0.935750000000     0.884910000000     0.286280000000    -0.371705   
O213     O      0.879190000000     0.528000000000     0.731280000000    -0.359999   
O214     O      0.576740000000     0.934230000000     0.710780000000    -0.371244   
O215     O      0.950550000000     0.900050000000     0.665220000000    -0.378422   
O216     O      0.506550000000     0.561580000000     0.670030000000    -0.375092   
O217     O      0.554420000000     0.512940000000     0.660920000000    -0.372887   
O218     O      0.901570000000     0.947950000000     0.662460000000    -0.372492   
O219     O      0.927850000000     0.576590000000     0.730410000000    -0.363964   
O220     O      0.530060000000     0.884390000000     0.716480000000    -0.365385   
O221     O      0.978380000000     0.980220000000     0.218090000000    -0.587249   
O222     O      0.763520000000     0.802760000000     0.406670000000    -0.377714   
O223     O      0.699540000000     0.650800000000     0.407300000000    -0.380082   
O224     O      0.828350000000     0.676570000000     0.471490000000    -0.364731   
O225     O      0.634880000000     0.777960000000     0.460580000000    -0.361009   
O226     O      0.778790000000     0.629190000000     0.467700000000    -0.363492   
O227     O      0.684920000000     0.824980000000     0.457080000000    -0.365652   
O228     O      0.652130000000     0.700280000000     0.407490000000    -0.374462   
O229     O      0.811940000000     0.754320000000     0.411870000000    -0.372255   
O230     O      0.703460000000     0.805750000000     0.571500000000    -0.373501   
O231     O      0.757760000000     0.648440000000     0.572610000000    -0.371039   
O232     O      0.825600000000     0.772340000000     0.533480000000    -0.368697   
O233     O      0.635960000000     0.685380000000     0.532950000000    -0.369871   
O234     O      0.682260000000     0.634690000000     0.529130000000    -0.368713   
O235     O      0.777330000000     0.821250000000     0.531270000000    -0.369785   
O236     O      0.653810000000     0.758220000000     0.572340000000    -0.373102   
O237     O      0.804050000000     0.699010000000     0.580120000000    -0.379667   
O238     O      0.731470000000     0.727340000000     0.462750000000    -0.585382   
O239     O      0.884110000000     0.930070000000     0.778650000000    -0.366591   
O240     O      0.574390000000     0.526480000000     0.780930000000    -0.36956    
O241     O      0.510060000000     0.904590000000     0.828140000000    -0.383926   
O242     O      0.951170000000     0.550380000000     0.837930000000    -0.376748   
O243     O      0.558390000000     0.953040000000     0.825410000000    -0.377812   
O244     O      0.900970000000     0.503530000000     0.831440000000    -0.37058    
O245     O      0.524560000000     0.573580000000     0.788230000000    -0.367243   
O246     O      0.935750000000     0.884910000000     0.786280000000    -0.371711   
O247     O      0.879190000000     0.528000000000     0.231280000000    -0.359994   
O248     O      0.576740000000     0.934230000000     0.210780000000    -0.371239   
O249     O      0.950550000000     0.900050000000     0.165230000000    -0.378418   
O250     O      0.506550000000     0.561580000000     0.170030000000    -0.375088   
O251     O      0.554420000000     0.512940000000     0.160920000000    -0.37287    
O252     O      0.901570000000     0.947950000000     0.162460000000    -0.37247    
O253     O      0.927850000000     0.576590000000     0.230410000000    -0.36396    
O254     O      0.530060000000     0.884390000000     0.216480000000    -0.365385   
O255     O      0.978380000000     0.980220000000     0.718090000000    -0.587249   
O256     O      0.763520000000     0.802760000000     0.906670000000    -0.377676   
O257     O      0.699540000000     0.650800000000     0.907300000000    -0.380079   
O258     O      0.828350000000     0.676570000000     0.971490000000    -0.364761   
O259     O      0.634880000000     0.777960000000     0.960580000000    -0.361025   
O260     O      0.778790000000     0.629190000000     0.967700000000    -0.363508   
O261     O      0.684920000000     0.824980000000     0.957080000000    -0.365651   
O262     O      0.652130000000     0.700280000000     0.907490000000    -0.374453   
O263     O      0.811940000000     0.754320000000     0.911870000000    -0.372283   
O264     O      0.703460000000     0.805750000000     0.071500000000    -0.373435   
O265     O      0.757760000000     0.648440000000     0.072600000000    -0.370911   
O266     O      0.825600000000     0.772340000000     0.033480000000    -0.368574   
O267     O      0.635960000000     0.685380000000     0.032950000000    -0.369742   
O268     O      0.682260000000     0.634690000000     0.029130000000    -0.36858    
O269     O      0.777330000000     0.821250000000     0.031280000000    -0.369684   
O270     O      0.653810000000     0.758220000000     0.072340000000    -0.373013   
O271     O      0.804050000000     0.699010000000     0.080120000000    -0.379501   
O272     O      0.731470000000     0.727340000000     0.962750000000    -0.585319   


