data_structure

_audit_creation_method RASPA-1.0
_audit_creation_date 2023-6-4
_audit_author_name 'Poobodin Mano'

_cell_length_a    39.2176
_cell_length_b    39.5283
_cell_length_c    40.8156
_cell_angle_alpha 87.139
_cell_angle_beta  93.8153
_cell_angle_gamma 120.434
_cell_volume      54423.9

_symmetry_cell_setting          triclinic
_symmetry_space_group_name_Hall 'P 1'
_symmetry_space_group_name_H-M  'P 1'
_symmetry_Int_Tables_number     1

_symmetry_equiv_pos_as_xyz 'x,y,z'

loop_
_atom_site_label
_atom_site_type_symbol
_atom_site_fract_x
_atom_site_fract_y
_atom_site_fract_z
_atom_site_charge
C1       C      0.058610000000     0.149370000000     0.946120000000     0.471445   
C2       C      0.971600000000     0.984090000000     0.957440000000     0.516347   
C3       C      0.062190000000     0.057980000000     0.893820000000     0.513915   
C4       C      0.979610000000     0.051630000000     0.023820000000     0.463275   
C5       C      0.073880000000     0.074060000000     0.057250000000     0.455082   
C6       C      0.134300000000     0.056110000000     0.958300000000     0.524772   
C7       C      0.134450000000     0.150880000000     0.001250000000     0.499711   
C8       C      0.020950000000     0.960150000000     0.019890000000     0.434333   
C9       C      0.999110000000     0.005870000000     0.393540000000     0.509709   
C10      C      0.025600000000     0.095470000000     0.525960000000     0.443278   
C11      C      0.925280000000     0.021810000000     0.435520000000     0.47914    
C12      C      0.086630000000     0.103710000000     0.473250000000     0.519855   
C13      C      0.093140000000     0.025190000000     0.518580000000     0.411564   
C14      C      0.904920000000     0.955360000000     0.502060000000     0.484103   
C15      C      0.011740000000     0.943120000000     0.455350000000     0.488569   
C16      C      0.980290000000     0.996490000000     0.553620000000     0.453175   
C17      C      0.016490000000     0.481830000000     0.021160000000     0.484557   
C18      C      0.038390000000     0.622190000000     0.060390000000     0.486919   
C19      C      0.985160000000     0.536110000000     0.108030000000     0.512436   
C20      C      0.091970000000     0.557770000000     0.994920000000     0.465902   
C21      C      0.157910000000     0.589740000000     0.067780000000     0.457741   
C22      C      0.067050000000     0.529620000000     0.151680000000     0.480038   
C23      C      0.033990000000     0.450760000000     0.090280000000     0.387374   
C24      C      0.139180000000     0.654320000000     0.090410000000     0.511456   
C25      C      0.929590000000     0.457810000000     0.554710000000     0.505565   
C26      C      0.034840000000     0.609430000000     0.530190000000     0.493984   
C27      C      0.941560000000     0.517770000000     0.609560000000     0.444048   
C28      C      0.047840000000     0.521320000000     0.495900000000     0.532015   
C29      C      0.090830000000     0.504930000000     0.572670000000     0.541409   
C30      C      0.036020000000     0.538670000000     0.650780000000     0.448843   
C31      C      0.989900000000     0.417100000000     0.573880000000     0.431389   
C32      C      0.094060000000     0.621460000000     0.604670000000     0.518674   
C33      C      0.517260000000     0.101650000000     0.999030000000     0.442706   
C34      C      0.617550000000     0.016310000000     0.029310000000     0.500835   
C35      C      0.583050000000     0.080780000000     0.958700000000     0.497708   
C36      C      0.507860000000     0.993080000000     0.063820000000     0.494247   
C37      C      0.561520000000     0.073980000000     0.119250000000     0.482545   
C38      C      0.679270000000     0.150460000000     0.987080000000     0.430825   
C39      C      0.583430000000     0.157370000000     0.065650000000     0.448989   
C40      C      0.675310000000     0.106200000000     0.072260000000     0.5326     
C41      C      0.431250000000     0.993330000000     0.527550000000     0.508003   
C42      C      0.512180000000     0.935470000000     0.509130000000     0.447284   
C43      C      0.530610000000     0.022320000000     0.458920000000     0.507208   
C44      C      0.443860000000     0.950360000000     0.608770000000     0.40542    
C45      C      0.546400000000     0.015450000000     0.622180000000     0.469122   
C46      C      0.597700000000     0.101040000000     0.513200000000     0.497046   
C47      C      0.501660000000     0.083180000000     0.565430000000     0.517668   
C48      C      0.593830000000     0.987520000000     0.562970000000     0.435069   
C49      C      0.513160000000     0.483470000000     0.029480000000     0.46258    
C50      C      0.615560000000     0.670890000000     0.029280000000     0.497034   
C51      C      0.510710000000     0.591260000000     0.075400000000     0.52366    
C52      C      0.579770000000     0.566110000000     0.975150000000     0.501637   
C53      C      0.678940000000     0.594780000000     0.007650000000     0.411859   
C54      C      0.572630000000     0.572160000000     0.137390000000     0.510424   
C55      C      0.586250000000     0.500630000000     0.093740000000     0.475072   
C56      C      0.677600000000     0.647000000000     0.079710000000     0.497036   
C57      C      0.428340000000     0.441800000000     0.531150000000     0.491188   
C58      C      0.511630000000     0.595260000000     0.511370000000     0.48082    
C59      C      0.422310000000     0.491970000000     0.591500000000     0.447417   
C60      C      0.549890000000     0.536000000000     0.480740000000     0.500921   
C61      C      0.589430000000     0.513140000000     0.558100000000     0.505913   
C62      C      0.517830000000     0.535820000000     0.632770000000     0.463534   
C63      C      0.486860000000     0.421740000000     0.592970000000     0.395021   
C64      C      0.565190000000     0.617880000000     0.586940000000     0.498941   
C65      C      0.545750000000     0.529390000000     0.891830000000    -0.221893   
C66      C      0.523790000000     0.572950000000     0.679110000000     0.0822598  
C67      C      0.543250000000     0.525060000000     0.684330000000     0.0875287  
C68      C      0.531020000000     0.579920000000     0.712760000000    -0.0913772  
C69      C      0.522010000000     0.570120000000     0.786070000000    -0.0370516  
C70      C      0.524470000000     0.571760000000     0.820360000000    -0.0219033  
C71      C      0.547490000000     0.562190000000     0.769370000000    -0.00053447 
C72      C      0.550030000000     0.530720000000     0.718150000000    -0.0909285  
C73      C      0.551860000000     0.564720000000     0.838590000000    -0.0272761  
C74      C      0.564280000000     0.597450000000     0.892420000000    -0.127317   
C75      C      0.577720000000     0.557450000000     0.822160000000    -0.0217349  
C76      C      0.570860000000     0.597050000000     0.926490000000     0.10653    
C77      C      0.551830000000     0.529680000000     0.925890000000     0.422155   
C78      C      0.575880000000     0.556630000000     0.787940000000    -0.0369212  
C79      C      0.543290000000     0.557960000000     0.732980000000     0.0536228  
C80      C      0.553140000000     0.563740000000     0.874780000000     0.114502   
C81      C      0.544950000000     0.533560000000     0.221300000000    -0.220225   
C82      C      0.528600000000     0.517630000000     0.425560000000     0.0816941  
C83      C      0.593150000000     0.571180000000     0.437170000000     0.0877236  
C84      C      0.535170000000     0.521400000000     0.392250000000    -0.0944478  
C85      C      0.564320000000     0.519750000000     0.326750000000    -0.0381752  
C86      C      0.565360000000     0.521990000000     0.292590000000    -0.0219334  
C87      C      0.578020000000     0.553800000000     0.345160000000    -0.000885393
C88      C      0.600720000000     0.575930000000     0.403620000000    -0.0904087  
C89      C      0.580320000000     0.558360000000     0.276040000000    -0.0268063  
C90      C      0.610680000000     0.589880000000     0.222880000000    -0.129079   
C91      C      0.595690000000     0.592650000000     0.294520000000    -0.0215824  
C92      C      0.608140000000     0.592580000000     0.188750000000     0.10274    
C93      C      0.543210000000     0.537090000000     0.187030000000     0.418357   
C94      C      0.594580000000     0.590390000000     0.328770000000    -0.0375808  
C95      C      0.571610000000     0.550420000000     0.380850000000     0.0537888  
C96      C      0.578750000000     0.560430000000     0.239620000000     0.112021   
C97      C      0.542130000000     0.689450000000     0.468760000000    -0.213774   
C98      C      0.473500000000     0.867230000000     0.497250000000     0.0763159  
C99      C      0.535560000000     0.906570000000     0.473470000000     0.0764001  
C100     C      0.471590000000     0.833170000000     0.486600000000    -0.0905685  
C101     C      0.473040000000     0.765610000000     0.453310000000    -0.0377457  
C102     C      0.474260000000     0.730820000000     0.452630000000    -0.0225925  
C103     C      0.505880000000     0.800130000000     0.465570000000    -0.000490783
C104     C      0.534880000000     0.873150000000     0.462880000000    -0.0910326  
C105     C      0.508090000000     0.729520000000     0.464830000000    -0.022753   
C106     C      0.472740000000     0.657140000000     0.478480000000    -0.122562   
C107     C      0.541460000000     0.764660000000     0.475800000000    -0.0200149  
C108     C      0.474120000000     0.623750000000     0.489230000000     0.105615   
C109     C      0.542670000000     0.655670000000     0.480140000000     0.42317    
C110     C      0.540430000000     0.799480000000     0.475960000000    -0.0366914  
C111     C      0.503410000000     0.835830000000     0.470590000000     0.050561   
C112     C      0.507420000000     0.691370000000     0.469610000000     0.112968   
C113     C      0.477420000000     0.142980000000     0.615180000000    -0.217846   
C114     C      0.507400000000     0.377770000000     0.578420000000     0.0752265  
C115     C      0.473340000000     0.365840000000     0.627390000000     0.0753859  
C116     C      0.510350000000     0.344360000000     0.584260000000    -0.0938391  
C117     C      0.532610000000     0.286290000000     0.615210000000    -0.0398302  
C118     C      0.534340000000     0.252140000000     0.612620000000    -0.0242222  
C119     C      0.496020000000     0.284350000000     0.616810000000    -0.00179838 
C120     C      0.474930000000     0.331390000000     0.633600000000    -0.0906764  
C121     C      0.499450000000     0.215260000000     0.611120000000    -0.0268656  
C122     C      0.524930000000     0.184120000000     0.575720000000    -0.129583   
C123     C      0.463050000000     0.213080000000     0.615340000000    -0.0224987  
C124     C      0.524910000000     0.151390000000     0.564690000000     0.099373   
C125     C      0.478240000000     0.110510000000     0.603680000000     0.415329   
C126     C      0.461370000000     0.247420000000     0.618240000000    -0.0382147  
C127     C      0.493890000000     0.320620000000     0.611930000000     0.0503964  
C128     C      0.500900000000     0.180320000000     0.601100000000     0.108514   
C129     C      0.572990000000     0.029880000000     0.882990000000    -0.21938    
C130     C      0.566870000000     0.060590000000     0.665530000000     0.0848288  
C131     C      0.571780000000     0.003330000000     0.673100000000     0.0797453  
C132     C      0.574400000000     0.068000000000     0.699060000000    -0.090755   
C133     C      0.599370000000     0.081710000000     0.771250000000    -0.0375439  
C134     C      0.596390000000     0.085020000000     0.804700000000    -0.0213981  
C135     C      0.579300000000     0.044810000000     0.756450000000    -0.000231079
C136     C      0.579400000000     0.009840000000     0.706790000000    -0.0926803  
C137     C      0.573320000000     0.051510000000     0.824120000000    -0.0257107  
C138     C      0.565290000000     0.085810000000     0.870320000000    -0.128374   
C139     C      0.554030000000     0.014520000000     0.809540000000    -0.0216849  
C140     C      0.566810000000     0.091970000000     0.903840000000     0.102928   
C141     C      0.574510000000     0.036880000000     0.916430000000     0.424338   
C142     C      0.556920000000     0.011210000000     0.776050000000    -0.0368609  
C143     C      0.578910000000     0.041460000000     0.720340000000     0.0531628  
C144     C      0.569940000000     0.055410000000     0.859550000000     0.113271   
C145     C      0.563220000000     0.038000000000     0.374760000000    -0.224159   
C146     C      0.520760000000     0.067920000000     0.162500000000     0.0787326  
C147     C      0.588210000000     0.087200000000     0.174010000000     0.0791032  
C148     C      0.514540000000     0.065530000000     0.196060000000    -0.0945564  
C149     C      0.505520000000     0.031820000000     0.265790000000    -0.0385383  
C150     C      0.502000000000     0.022180000000     0.299270000000    -0.0232511  
C151     C      0.539100000000     0.065900000000     0.254600000000    -0.00149319 
C152     C      0.583100000000     0.085220000000     0.207560000000    -0.0906377  
C153     C      0.532130000000     0.046300000000     0.322040000000    -0.0285075  
C154     C      0.495630000000     0.023240000000     0.373870000000    -0.131504   
C155     C      0.564840000000     0.081140000000     0.311000000000    -0.0221833  
C156     C      0.495820000000     0.016990000000     0.407790000000     0.098792   
C157     C      0.562420000000     0.031240000000     0.408620000000     0.418519   
C158     C      0.568210000000     0.090940000000     0.277650000000    -0.0383617  
C159     C      0.545700000000     0.073200000000     0.219000000000     0.051834   
C160     C      0.530060000000     0.035230000000     0.357250000000     0.112441   
C161     C      0.659450000000     0.770350000000     0.992200000000    -0.216221   
C162     C      0.594810000000     0.948160000000     0.027790000000     0.090853   
C163     C      0.653620000000     0.993310000000     0.001500000000     0.0938847  
C164     C      0.598560000000     0.916830000000     0.018480000000    -0.0918573  
C165     C      0.602890000000     0.857320000000     0.977130000000    -0.0380835  
C166     C      0.602670000000     0.822020000000     0.975660000000    -0.0230674  
C167     C      0.635040000000     0.889970000000     0.992370000000    -5.04954e-05
C168     C      0.658800000000     0.962460000000     0.992400000000    -0.0872224  
C169     C      0.634390000000     0.818380000000     0.989810000000    -0.0260713  
C170     C      0.593900000000     0.749170000000     0.009110000000    -0.12815    
C171     C      0.668110000000     0.852050000000     0.002450000000    -0.0218026  
C172     C      0.589840000000     0.713170000000     0.018810000000     0.0992349  
C173     C      0.654160000000     0.733330000000     0.001690000000     0.41311    
C174     C      0.668460000000     0.887650000000     0.003660000000    -0.0375921  
C175     C      0.630860000000     0.923710000000     0.000780000000     0.056162   
C176     C      0.629200000000     0.778680000000     0.996250000000     0.107826   
C177     C      0.621970000000     0.432840000000     0.116220000000    -0.217254   
C178     C      0.552300000000     0.183190000000     0.096350000000     0.0765431  
C179     C      0.618980000000     0.224160000000     0.082240000000     0.0769377  
C180     C      0.551660000000     0.215330000000     0.108580000000    -0.092427   
C181     C      0.550430000000     0.291920000000     0.105370000000    -0.038374   
C182     C      0.550690000000     0.326980000000     0.109550000000    -0.0231608  
C183     C      0.583510000000     0.288390000000     0.115500000000    -0.00106    
C184     C      0.619430000000     0.256850000000     0.094440000000    -0.0903206  
C185     C      0.583970000000     0.359500000000     0.124100000000    -0.0249484  
C186     C      0.552990000000     0.401890000000     0.127210000000    -0.124269   
C187     C      0.616210000000     0.355220000000     0.135830000000    -0.0224099  
C188     C      0.554470000000     0.437680000000     0.120240000000     0.0999643  
C189     C      0.622470000000     0.468090000000     0.109360000000     0.415623   
C190     C      0.616030000000     0.320190000000     0.131480000000    -0.0378505  
C191     C      0.585130000000     0.252980000000     0.106900000000     0.0503268  
C192     C      0.586530000000     0.398610000000     0.123610000000     0.108293   
C193     C      0.842750000000     0.395920000000     0.502350000000    -0.215395   
C194     C      0.663780000000     0.150520000000     0.526580000000     0.0839179  
C195     C      0.621400000000     0.166860000000     0.494260000000     0.0834879  
C196     C      0.693790000000     0.189640000000     0.526580000000    -0.0951544  
C197     C      0.737210000000     0.273680000000     0.545040000000    -0.0382837  
C198     C      0.767580000000     0.312230000000     0.548700000000    -0.0219701  
C199     C      0.717430000000     0.260360000000     0.514440000000    -0.00216937 
C200     C      0.650810000000     0.206490000000     0.494000000000    -0.0959137  
C201     C      0.778750000000     0.339050000000     0.522000000000    -0.0253901  
C202     C      0.823290000000     0.396360000000     0.556930000000    -0.130507   
C203     C      0.758070000000     0.326180000000     0.491460000000    -0.0219428  
C204     C      0.861950000000     0.424720000000     0.565280000000     0.107217   
C205     C      0.881020000000     0.426400000000     0.511030000000     0.428264   
C206     C      0.727520000000     0.287100000000     0.487740000000    -0.0371485  
C207     C      0.687170000000     0.218320000000     0.510960000000     0.0542641  
C208     C      0.814230000000     0.378750000000     0.526260000000     0.11184    
C209     C      0.190790000000     0.692720000000     0.641420000000    -0.222562   
C210     C      0.385240000000     0.933640000000     0.636160000000     0.0739649  
C211     C      0.398130000000     0.883980000000     0.621450000000     0.0774889  
C212     C      0.348020000000     0.905170000000     0.646910000000    -0.0906314  
C213     C      0.263160000000     0.832440000000     0.633930000000    -0.0385249  
C214     C      0.226370000000     0.797810000000     0.633480000000    -0.0227902  
C215     C      0.295540000000     0.834110000000     0.652200000000    -0.00155639 
C216     C      0.361900000000     0.855000000000     0.632830000000    -0.0926392  
C217     C      0.221370000000     0.764430000000     0.651540000000    -0.0273565  
C218     C      0.148610000000     0.720700000000     0.637450000000    -0.129977   
C219     C      0.252840000000     0.767750000000     0.672530000000    -0.0225544  
C220     C      0.117640000000     0.685050000000     0.625540000000     0.0992473  
C221     C      0.159320000000     0.657530000000     0.629520000000     0.417081   
C222     C      0.289690000000     0.802160000000     0.672600000000    -0.0389773  
C223     C      0.336070000000     0.865400000000     0.645010000000     0.050345   
C224     C      0.186120000000     0.725260000000     0.644580000000     0.110645   
C225     C      0.676710000000     0.518380000000     0.602470000000    -0.220314   
C226     C      0.881060000000     0.489030000000     0.638000000000     0.0722169  
C227     C      0.886960000000     0.521970000000     0.586670000000     0.0730197  
C228     C      0.841090000000     0.478780000000     0.638420000000    -0.0925393  
C229     C      0.759010000000     0.465310000000     0.580680000000    -0.0402758  
C230     C      0.723140000000     0.464620000000     0.575530000000    -0.0224313  
C231     C      0.781830000000     0.479400000000     0.610140000000    -0.00112984 
C232     C      0.847550000000     0.511940000000     0.586110000000    -0.0878925  
C233     C      0.709080000000     0.477840000000     0.599810000000    -0.0272039  
C234     C      0.643440000000     0.459760000000     0.570630000000    -0.12888    
C235     C      0.730250000000     0.488610000000     0.630430000000    -0.0226942  
C236     C      0.614910000000     0.469650000000     0.559960000000     0.0987729  
C237     C      0.647630000000     0.527360000000     0.591590000000     0.417508   
C238     C      0.766340000000     0.489400000000     0.635540000000    -0.0389288  
C239     C      0.823860000000     0.489600000000     0.611780000000     0.0479252  
C240     C      0.675330000000     0.484620000000     0.591680000000     0.109903   
C241     C      0.128590000000     0.437090000000     0.586980000000    -0.222396   
C242     C      0.359500000000     0.480440000000     0.571630000000     0.0764666  
C243     C      0.366510000000     0.457450000000     0.625050000000     0.0762344  
C244     C      0.319760000000     0.466710000000     0.575710000000    -0.0946043  
C245     C      0.232790000000     0.422710000000     0.585940000000    -0.0382818  
C246     C      0.199330000000     0.426600000000     0.584850000000    -0.0227074  
C247     C      0.262560000000     0.440680000000     0.610800000000    -0.00207502 
C248     C      0.326660000000     0.444180000000     0.630360000000    -0.0931227  
C249     C      0.194890000000     0.448320000000     0.608770000000    -0.0261864  
C250     C      0.176150000000     0.500150000000     0.608930000000    -0.124318   
C251     C      0.222400000000     0.462130000000     0.635780000000    -0.0232159  
C252     C      0.150730000000     0.514040000000     0.598750000000     0.103985   
C253     C      0.104070000000     0.452050000000     0.576660000000     0.421929   
C254     C      0.256040000000     0.458380000000     0.636770000000    -0.0375249  
C255     C      0.303030000000     0.449070000000     0.605470000000     0.051041   
C256     C      0.165450000000     0.461340000000     0.602800000000     0.110882   
C257     C      0.110820000000     0.543000000000     0.910890000000    -0.214249   
C258     C      0.051120000000     0.576220000000     0.699100000000     0.0806126  
C259     C      0.066030000000     0.525160000000     0.698450000000     0.0822413  
C260     C      0.061450000000     0.581210000000     0.732700000000    -0.0925822  
C261     C      0.048970000000     0.554860000000     0.804820000000    -0.0382852  
C262     C      0.052670000000     0.554310000000     0.839030000000    -0.0240714  
C263     C      0.079120000000     0.558110000000     0.785960000000    -0.00198323 
C264     C      0.077300000000     0.529890000000     0.731890000000    -0.0912582  
C265     C      0.087090000000     0.557940000000     0.855490000000    -0.0244044  
C266     C      0.074490000000     0.577120000000     0.908950000000    -0.123466   
C267     C      0.117200000000     0.560770000000     0.836510000000    -0.0231731  
C268     C      0.075500000000     0.576230000000     0.943060000000     0.0950986  
C269     C      0.112120000000     0.543370000000     0.945430000000     0.412203   
C270     C      0.113090000000     0.560530000000     0.802080000000    -0.0378813  
C271     C      0.073730000000     0.557200000000     0.749620000000     0.0525107  
C272     C      0.091230000000     0.559490000000     0.892170000000     0.105755   
C273     C      0.085150000000     0.547930000000     0.412450000000    -0.215704   
C274     C      0.038440000000     0.487720000000     0.198510000000     0.0789655  
C275     C      0.100230000000     0.546640000000     0.204130000000     0.0772867  
C276     C      0.036670000000     0.483170000000     0.232860000000    -0.087911   
C277     C      0.049570000000     0.477430000000     0.308580000000    -0.0364084  
C278     C      0.047390000000     0.478430000000     0.342690000000    -0.021699   
C279     C      0.063210000000     0.511930000000     0.289280000000     0.000498978
C280     C      0.099530000000     0.542930000000     0.238220000000    -0.0894039  
C281     C      0.058530000000     0.513900000000     0.358220000000    -0.0225808  
C282     C      0.025440000000     0.485000000000     0.411560000000    -0.117819   
C283     C      0.071450000000     0.548130000000     0.338680000000    -0.0214023  
C284     C      0.023360000000     0.487580000000     0.445340000000     0.110104   
C285     C      0.082200000000     0.549770000000     0.446250000000     0.421962   
C286     C      0.073790000000     0.547160000000     0.304780000000    -0.0366817  
C287     C      0.066720000000     0.511990000000     0.253110000000     0.0507906  
C288     C      0.056480000000     0.515460000000     0.394520000000     0.111232   
C289     C      0.779680000000     0.205610000000     0.955940000000    -0.218547   
C290     C      0.952830000000     0.450640000000     0.993920000000     0.096313   
C291     C      0.998950000000     0.430760000000     0.983920000000     0.0890254  
C292     C      0.922800000000     0.418160000000     0.977270000000    -0.0830461  
C293     C      0.864450000000     0.348100000000     0.936830000000    -0.0377303  
C294     C      0.829260000000     0.312050000000     0.934680000000    -0.021892   
C295     C      0.897380000000     0.351300000000     0.955340000000     0.00151613 
C296     C      0.969580000000     0.397760000000     0.967420000000    -0.0886038  
C297     C      0.826330000000     0.278650000000     0.951190000000    -0.0255582  
C298     C      0.757090000000     0.249950000000     0.967460000000    -0.127846   
C299     C      0.860420000000     0.281020000000     0.966840000000    -0.0207209  
C300     C      0.721520000000     0.218160000000     0.977000000000     0.10032    
C301     C      0.743190000000     0.174030000000     0.965270000000     0.413505   
C302     C      0.895700000000     0.317070000000     0.968900000000    -0.0330043  
C303     C      0.930630000000     0.390270000000     0.965250000000     0.0581521  
C304     C      0.786910000000     0.244070000000     0.957150000000     0.1107     
C305     C      0.240520000000     0.721800000000     0.122030000000    -0.222606   
C306     C      0.474660000000     0.933050000000     0.094350000000     0.0802952  
C307     C      0.441590000000     0.945610000000     0.048720000000     0.0797483  
C308     C      0.439890000000     0.898350000000     0.101790000000    -0.0958693  
C309     C      0.362820000000     0.816780000000     0.098020000000    -0.0390375  
C310     C      0.325350000000     0.783940000000     0.102490000000    -0.0231862  
C311     C      0.366880000000     0.853890000000     0.091820000000    -0.00327074 
C312     C      0.406430000000     0.911430000000     0.055570000000    -0.0962895  
C313     C      0.291690000000     0.788010000000     0.100920000000    -0.0290867  
C314     C      0.224070000000     0.751110000000     0.075100000000    -0.132824   
C315     C      0.296310000000     0.825550000000     0.096940000000    -0.0237842  
C316     C      0.186640000000     0.718020000000     0.072910000000     0.100214   
C317     C      0.202360000000     0.689010000000     0.119460000000     0.415462   
C318     C      0.333520000000     0.858150000000     0.092380000000    -0.0396839  
C319     C      0.405090000000     0.888000000000     0.082850000000     0.0524697  
C320     C      0.251530000000     0.753220000000     0.099710000000     0.111178   
C321     C      0.894790000000     0.529910000000     0.072350000000    -0.218344   
C322     C      0.748650000000     0.631250000000     0.998890000000     0.0736117  
C323     C      0.716450000000     0.563110000000     0.011490000000     0.0870565  
C324     C      0.785800000000     0.634250000000     0.005260000000    -0.0921716  
C325     C      0.838110000000     0.614280000000     0.061110000000    -0.0365322  
C326     C      0.864600000000     0.604470000000     0.077480000000    -0.0226736  
C327     C      0.824460000000     0.602560000000     0.028630000000    -0.00154262 
C328     C      0.752560000000     0.564780000000     0.017000000000    -0.08843    
C329     C      0.877800000000     0.582730000000     0.061560000000    -0.0234643  
C330     C      0.930970000000     0.588730000000     0.103660000000    -0.126007   
C331     C      0.866600000000     0.574130000000     0.028110000000    -0.020984   
C332     C      0.956360000000     0.575420000000     0.116280000000     0.102895   
C333     C      0.920600000000     0.517570000000     0.085240000000     0.426359   
C334     C      0.839860000000     0.583520000000     0.011970000000    -0.0368768  
C335     C      0.787580000000     0.600840000000     0.015690000000     0.0525384  
C336     C      0.901370000000     0.567050000000     0.079670000000     0.113776   
C337     C      0.416570000000     0.586870000000     0.052400000000    -0.224283   
C338     C      0.210520000000     0.591470000000     0.100880000000     0.0972523  
C339     C      0.225030000000     0.633940000000     0.054280000000     0.0854839  
C340     C      0.249620000000     0.600310000000     0.104500000000    -0.0920848  
C341     C      0.312280000000     0.587230000000     0.081420000000    -0.0366528  
C342     C      0.346340000000     0.585090000000     0.079330000000    -0.021491   
C343     C      0.313860000000     0.623580000000     0.079280000000    -0.00113265 
C344     C      0.264650000000     0.643010000000     0.056840000000    -0.0909461  
C345     C      0.383050000000     0.619220000000     0.075010000000    -0.0274935  
C346     C      0.453220000000     0.638000000000     0.091590000000    -0.13038    
C347     C      0.385030000000     0.655830000000     0.073080000000    -0.0228045  
C348     C      0.484130000000     0.629950000000     0.091750000000     0.103016   
C349     C      0.447840000000     0.579600000000     0.052980000000     0.42121    
C350     C      0.350510000000     0.657970000000     0.074860000000    -0.0381379  
C351     C      0.276510000000     0.624120000000     0.081060000000     0.0550574  
C352     C      0.418550000000     0.615570000000     0.072390000000     0.113186   
C353     C      0.621820000000     0.725500000000     0.582390000000    -0.215919   
C354     C      0.867580000000     0.892840000000     0.527820000000     0.0806684  
C355     C      0.841780000000     0.935800000000     0.522260000000     0.0809661  
C356     C      0.833520000000     0.864340000000     0.542820000000    -0.0924793  
C357     C      0.766040000000     0.818420000000     0.588790000000    -0.0378785  
C358     C      0.731560000000     0.785020000000     0.598840000000    -0.0234121  
C359     C      0.765140000000     0.839810000000     0.560570000000    -0.00181392 
C360     C      0.806860000000     0.907530000000     0.536600000000    -0.0940968  
C361     C      0.695500000000     0.771900000000     0.580560000000    -0.0237616  
C362     C      0.665840000000     0.700830000000     0.596580000000    -0.12123    
C363     C      0.694270000000     0.794740000000     0.553400000000    -0.0214881  
C364     C      0.633210000000     0.663010000000     0.598290000000     0.0967676  
C365     C      0.589640000000     0.687130000000     0.584170000000     0.421475   
C366     C      0.728720000000     0.828480000000     0.543610000000    -0.0368433  
C367     C      0.802510000000     0.871330000000     0.547030000000     0.0530752  
C368     C      0.660590000000     0.732600000000     0.587480000000     0.110459   
C369     C      0.155560000000     0.203650000000     0.500960000000    -0.223694   
C370     C      0.380660000000     0.415860000000     0.486420000000     0.0789988  
C371     C      0.360470000000     0.398550000000     0.541170000000     0.0797354  
C372     C      0.342170000000     0.390080000000     0.474300000000    -0.0938661  
C373     C      0.269750000000     0.310480000000     0.459450000000    -0.0378116  
C374     C      0.234150000000     0.275640000000     0.453030000000    -0.0221602  
C375     C      0.272820000000     0.335510000000     0.484250000000    -0.0017163  
C376     C      0.321740000000     0.372720000000     0.529930000000    -0.093315   
C377     C      0.201050000000     0.265130000000     0.471390000000    -0.0275704  
C378     C      0.150150000000     0.203980000000     0.441910000000    -0.129864   
C379     C      0.203080000000     0.291790000000     0.494050000000    -0.0227244  
C380     C      0.122010000000     0.163840000000     0.443080000000     0.100355   
C381     C      0.128270000000     0.163630000000     0.501340000000     0.420302   
C382     C      0.238590000000     0.326690000000     0.500370000000    -0.0379514  
C383     C      0.312340000000     0.367420000000     0.496140000000     0.0514992  
C384     C      0.167490000000     0.224160000000     0.471150000000     0.112129   
C385     C      0.819700000000     0.984380000000     0.425930000000    -0.219049   
C386     C      0.659230000000     0.024520000000     0.544610000000     0.0665341  
C387     C      0.623050000000     0.955620000000     0.537800000000     0.0772054  
C388     C      0.689820000000     0.027770000000     0.526640000000    -0.0900166  
C389     C      0.737770000000     0.030610000000     0.470720000000    -0.0378019  
C390     C      0.769190000000     0.035500000000     0.452770000000    -0.021588   
C391     C      0.718210000000     0.998040000000     0.492130000000     0.00102761 
C392     C      0.653030000000     0.957850000000     0.519390000000    -0.0919836  
C393     C      0.781510000000     0.007720000000     0.455470000000    -0.026869   
C394     C      0.852800000000     0.051540000000     0.442770000000    -0.127882   
C395     C      0.761060000000     0.974420000000     0.475900000000    -0.0229151  
C396     C      0.889000000000     0.055010000000     0.436300000000     0.0973138  
C397     C      0.856380000000     0.988970000000     0.419400000000     0.420352   
C398     C      0.729850000000     0.969670000000     0.494050000000    -0.0394578  
C399     C      0.686620000000     0.994400000000     0.512960000000     0.0507489  
C400     C      0.817970000000     0.015020000000     0.439990000000     0.109732   
C401     C      0.174420000000     0.011910000000     0.554860000000    -0.213113   
C402     C      0.381610000000     0.004170000000     0.502000000000     0.0852627  
C403     C      0.364540000000     0.955810000000     0.544340000000     0.0853602  
C404     C      0.344570000000     0.000700000000     0.502160000000    -0.0946997  
C405     C      0.259970000000     0.979050000000     0.497550000000    -0.0390239  
C406     C      0.227740000000     0.984450000000     0.498970000000    -0.0239564  
C407     C      0.278830000000     0.974360000000     0.526390000000    -0.00181148 
C408     C      0.326880000000     0.951600000000     0.545220000000    -0.0914925  
C409     C      0.212220000000     0.984010000000     0.529240000000    -0.0251967  
C410     C      0.150470000000     0.979070000000     0.503260000000    -0.127612   
C411     C      0.230030000000     0.977700000000     0.558180000000    -0.0228437  
C412     C      0.122850000000     0.991140000000     0.500410000000     0.0971611  
C413     C      0.144700000000     0.022070000000     0.551950000000     0.415812   
C414     C      0.263090000000     0.973010000000     0.556770000000    -0.0370515  
C415     C      0.316900000000     0.974970000000     0.524470000000     0.0544897  
C416     C      0.178230000000     0.991020000000     0.529770000000     0.10692    
C417     C      0.001410000000     0.673860000000     0.491080000000    -0.219234   
C418     C      0.051060000000     0.915340000000     0.442220000000     0.0783319  
C419     C      0.991030000000     0.876560000000     0.469130000000     0.0823209  
C420     C      0.057710000000     0.883580000000     0.443010000000    -0.0938877  
C421     C      0.068920000000     0.814550000000     0.473810000000    -0.0386315  
C422     C      0.070580000000     0.780170000000     0.479980000000    -0.0235095  
C423     C      0.035250000000     0.812810000000     0.457840000000    -0.00188765 
C424     C      0.996230000000     0.844180000000     0.469570000000    -0.0928289  
C425     C      0.038740000000     0.743440000000     0.469980000000    -0.0253045  
C426     C      0.071280000000     0.702960000000     0.484730000000    -0.124593   
C427     C      0.006430000000     0.742440000000     0.451840000000    -0.0225198  
C428     C      0.069430000000     0.669190000000     0.499260000000     0.102005   
C429     C      0.000500000000     0.640640000000     0.505460000000     0.418314   
C430     C      0.004560000000     0.776620000000     0.446140000000    -0.0379492  
C431     C      0.029840000000     0.847410000000     0.456550000000     0.0524648  
C432     C      0.037180000000     0.706140000000     0.481340000000     0.109465   
C433     C      0.997100000000     0.332160000000     0.551980000000    -0.212389   
C434     C      0.044010000000     0.139620000000     0.570650000000     0.094208   
C435     C      0.031670000000     0.157640000000     0.516830000000     0.0814841  
C436     C      0.047940000000     0.174160000000     0.582960000000    -0.0908845  
C437     C      0.018520000000     0.232420000000     0.597480000000    -0.0375467  
C438     C      0.010420000000     0.262620000000     0.601980000000    -0.0238124  
C439     C      0.043600000000     0.235880000000     0.572830000000    -0.00234881 
C440     C      0.036350000000     0.192390000000     0.527980000000    -0.0937329  
C441     C      0.027150000000     0.296460000000     0.581750000000    -0.0269185  
C442     C      0.016500000000     0.345810000000     0.609090000000    -0.124013   
C443     C      0.054750000000     0.301230000000     0.559120000000    -0.0239215  
C444     C      0.006550000000     0.375300000000     0.606530000000     0.114638   
C445     C      0.986860000000     0.361290000000     0.550280000000     0.443054   
C446     C      0.063090000000     0.271410000000     0.554860000000    -0.0373109  
C447     C      0.043690000000     0.200790000000     0.561420000000     0.0537187  
C448     C      0.013100000000     0.324920000000     0.581270000000     0.118      
C449     C      0.041970000000     0.069940000000     0.805730000000    -0.215152   
C450     C      0.001420000000     0.978490000000     0.604180000000     0.085923   
C451     C      0.953960000000     0.998690000000     0.603750000000     0.0811327  
C452     C      0.006240000000     0.981150000000     0.638400000000    -0.0875543  
C453     C      0.007330000000     0.981380000000     0.712440000000    -0.0359596  
C454     C      0.018180000000     0.991140000000     0.745460000000    -0.0215577  
C455     C      0.993860000000     0.002180000000     0.691750000000     0.000211275
C456     C      0.957280000000     0.000710000000     0.637990000000    -0.0931812  
C457     C      0.014960000000     0.021360000000     0.759210000000    -0.0235916  
C458     C      0.022410000000     0.002610000000     0.817970000000    -0.127794   
C459     C      0.000710000000     0.041640000000     0.738710000000    -0.0218839  
C460     C      0.034800000000     0.012410000000     0.850660000000     0.10633    
C461     C      0.053200000000     0.078680000000     0.839010000000     0.421683   
C462     C      0.990720000000     0.032470000000     0.705460000000    -0.0350151  
C463     C      0.985150000000     0.993860000000     0.655800000000     0.0542213  
C464     C      0.026460000000     0.031490000000     0.794680000000     0.11097    
C465     C      0.981700000000     0.980020000000     0.305680000000    -0.213651   
C466     C      0.083310000000     0.044170000000     0.106670000000     0.0833764  
C467     C      0.062270000000     0.090550000000     0.109010000000     0.0812767  
C468     C      0.075220000000     0.033820000000     0.139790000000    -0.0913557  
C469     C      0.071050000000     0.034130000000     0.215410000000    -0.0389675  
C470     C      0.059930000000     0.024410000000     0.247960000000    -0.0240786  
C471     C      0.045530000000     0.037480000000     0.191400000000    -0.00224788 
C472     C      0.053220000000     0.080440000000     0.141890000000    -0.0936974  
C473     C      0.022750000000     0.017030000000     0.257040000000    -0.026676   
C474     C      0.039020000000     0.044110000000     0.312910000000    -0.129132   
C475     C      0.996440000000     0.018530000000     0.232800000000    -0.0229748  
C476     C      0.032210000000     0.041260000000     0.346180000000     0.0996132  
C477     C      0.976040000000     0.977630000000     0.339660000000     0.417633   
C478     C      0.007840000000     0.028970000000     0.200320000000    -0.037869   
C479     C      0.058400000000     0.050850000000     0.157360000000     0.0522423  
C480     C      0.014080000000     0.013270000000     0.292280000000     0.108484   
C481     C      0.874090000000     0.916430000000     0.980520000000    -0.221879   
C482     C      0.744480000000     0.674750000000     0.064750000000     0.0893351  
C483     C      0.722990000000     0.714920000000     0.086220000000     0.0942907  
C484     C      0.777340000000     0.707860000000     0.051850000000    -0.089955   
C485     C      0.810580000000     0.775060000000     0.000360000000    -0.0310161  
C486     C      0.831560000000     0.808270000000     0.980200000000    -0.0211195  
C487     C      0.809170000000     0.778970000000     0.034270000000     0.00225641 
C488     C      0.755390000000     0.748510000000     0.073930000000    -0.0856712  
C489     C      0.851400000000     0.845960000000     0.993620000000    -0.0245889  
C490     C      0.898430000000     0.883990000000     0.948860000000    -0.127297   
C491     C      0.851450000000     0.849460000000     0.027800000000    -0.0221447  
C492     C      0.927890000000     0.920820000000     0.937590000000     0.100926   
C493     C      0.904440000000     0.952500000000     0.969520000000     0.425601   
C494     C      0.830500000000     0.816450000000     0.047820000000    -0.0376565  
C495     C      0.781390000000     0.744920000000     0.054470000000     0.0618884  
C496     C      0.873480000000     0.881940000000     0.972940000000     0.111884   
C497     C      0.239320000000     0.211360000000     0.025220000000    -0.220664   
C498     C      0.443400000000     0.454480000000     0.025370000000     0.0757145  
C499     C      0.471620000000     0.413660000000     0.030790000000     0.0838063  
C500     C      0.405400000000     0.421950000000     0.026300000000    -0.0831635  
C501     C      0.327580000000     0.348790000000     0.011820000000    -0.0373376  
C502     C      0.289300000000     0.316410000000     0.012980000000    -0.0202478  
C503     C      0.359220000000     0.349310000000     0.030750000000     0.00192332 
C504     C      0.433740000000     0.380210000000     0.031500000000    -0.0887883  
C505     C      0.281700000000     0.283460000000     0.032730000000    -0.0264801  
C506     C      0.207130000000     0.248790000000     0.030500000000    -0.128794   
C507     C      0.313090000000     0.283960000000     0.051920000000    -0.021843   
C508     C      0.170570000000     0.215100000000     0.023300000000     0.100345   
C509     C      0.202630000000     0.178590000000     0.017470000000     0.425597   
C510     C      0.351370000000     0.316580000000     0.051070000000    -0.0378464  
C511     C      0.399970000000     0.384130000000     0.029510000000     0.0513386  
C512     C      0.242140000000     0.247350000000     0.030480000000     0.11262    
C513     C      0.756210000000     0.099620000000     0.114950000000    -0.221216   
C514     C      0.938980000000     0.079920000000     0.020250000000     0.0888232  
C515     C      0.941690000000     0.046660000000     0.069470000000     0.0834589  
C516     C      0.914970000000     0.091140000000     0.034120000000    -0.0943822  
C517     C      0.885310000000     0.130750000000     0.075690000000    -0.0370587  
C518     C      0.856530000000     0.140300000000     0.081690000000    -0.0221319  
C519     C      0.877530000000     0.091990000000     0.080200000000    -0.00180537 
C520     C      0.916840000000     0.056990000000     0.084120000000    -0.0928713  
C521     C      0.819240000000     0.111230000000     0.092190000000    -0.0232229  
C522     C      0.780400000000     0.141840000000     0.067310000000    -0.121724   
C523     C      0.812680000000     0.073080000000     0.099000000000    -0.0213023  
C524     C      0.744290000000     0.141060000000     0.063210000000     0.110723   
C525     C      0.720330000000     0.098920000000     0.109850000000     0.422646   
C526     C      0.841600000000     0.063620000000     0.093190000000    -0.0355192  
C527     C      0.903970000000     0.080220000000     0.066460000000     0.0545379  
C528     C      0.785760000000     0.118960000000     0.092300000000     0.113003   
C529     C      0.241990000000     0.098420000000     0.957030000000    -0.217395   
C530     C      0.447410000000     0.061220000000     0.993210000000     0.0692705  
C531     C      0.476570000000     0.130240000000     0.987990000000     0.0741409  
C532     C      0.409580000000     0.056320000000     0.989490000000    -0.0926961  
C533     C      0.332170000000     0.050170000000     0.966700000000    -0.0385202  
C534     C      0.293960000000     0.044730000000     0.964510000000    -0.0233892  
C535     C      0.364110000000     0.083900000000     0.981330000000    -0.00143697 
C536     C      0.438980000000     0.126350000000     0.983570000000    -0.0918079  
C537     C      0.286830000000     0.073220000000     0.976230000000    -0.0266801  
C538     C      0.213240000000     0.034380000000     0.982710000000    -0.127383   
C539     C      0.318530000000     0.107060000000     0.990540000000    -0.02243    
C540     C      0.175850000000     0.030890000000     0.978290000000     0.108345   
C541     C      0.204300000000     0.093770000000     0.952260000000     0.442606   
C542     C      0.356620000000     0.112190000000     0.993340000000    -0.0378342  
C543     C      0.404700000000     0.089010000000     0.984660000000     0.0484887  
C544     C      0.246810000000     0.068560000000     0.972140000000     0.11624    
C545     C      0.992060000000     0.674770000000     0.019260000000    -0.221232   
C546     C      0.002680000000     0.903200000000     0.054470000000     0.0759876  
C547     C      0.008770000000     0.901120000000     0.997320000000     0.0809635  
C548     C      0.994910000000     0.864390000000     0.058340000000    -0.0915662  
C549     C      0.967150000000     0.776110000000     0.057010000000    -0.0397965  
C550     C      0.965830000000     0.739960000000     0.059910000000    -0.0243556  
C551     C      0.991040000000     0.804590000000     0.033880000000    -0.00250647 
C552     C      0.999810000000     0.862440000000     0.000080000000    -0.0971281  
C553     C      0.988000000000     0.731540000000     0.039460000000    -0.028385   
C554     C      0.003180000000     0.689010000000     0.076860000000    -0.133083   
C555     C      0.010950000000     0.759530000000     0.015880000000    -0.0236533  
C556     C      0.016800000000     0.662670000000     0.081320000000     0.098521   
C557     C      0.005310000000     0.647950000000     0.024620000000     0.415079   
C558     C      0.012800000000     0.795630000000     0.013360000000    -0.0390314  
C559     C      0.994410000000     0.843900000000     0.030910000000     0.0507527  
C560     C      0.992310000000     0.696620000000     0.045390000000     0.110213   
C561     C      0.001200000000     0.355540000000     0.053170000000    -0.215949   
C562     C      0.089440000000     0.218520000000     0.953170000000     0.0819344  
C563     C      0.019700000000     0.178240000000     0.954480000000     0.0741365  
C564     C      0.087510000000     0.249960000000     0.965440000000    -0.0932861  
C565     C      0.073500000000     0.292120000000     0.019360000000    -0.0390474  
C566     C      0.069510000000     0.318340000000     0.038260000000    -0.0230156  
C567     C      0.048470000000     0.275260000000     0.991430000000    -0.0014169  
C568     C      0.016620000000     0.209130000000     0.966130000000    -0.0937026  
C569     C      0.040720000000     0.328870000000     0.029500000000    -0.0255293  
C570     C      0.071850000000     0.390100000000     0.062820000000    -0.124101   
C571     C      0.015810000000     0.312110000000     0.001340000000    -0.0221839  
C572     C      0.069320000000     0.419080000000     0.078720000000     0.0970839  
C573     C      0.999630000000     0.385280000000     0.069180000000     0.414119   
C574     C      0.019470000000     0.285420000000     0.982670000000    -0.0394862  
C575     C      0.050880000000     0.244950000000     0.973210000000     0.0504174  
C576     C      0.037740000000     0.358240000000     0.048950000000     0.107337   
Co1      Co     0.045920000000     0.104320000000     0.997940000000     1.05155    
Co2      Co     0.051770000000     0.012060000000     0.954960000000     1.03372    
Co3      Co     0.103390000000     0.108640000000     0.945440000000     1.14743    
Co4      Co     0.030490000000     0.022800000000     0.012090000000     1.05621    
Co5      Co     0.048500000000     0.029670000000     0.448780000000     1.04191    
Co6      Co     0.963380000000     0.036110000000     0.494560000000     1.08793    
Co7      Co     0.955280000000     0.965660000000     0.453760000000     1.13347    
Co8      Co     0.040090000000     0.033360000000     0.514920000000     1.08127    
Co9      Co     0.090090000000     0.521100000000     0.056390000000     0.93953    
Co10     Co     0.071960000000     0.590720000000     0.114010000000     1.13837    
Co11     Co     0.028300000000     0.505650000000     0.083230000000     1.1275     
Co12     Co     0.091950000000     0.603820000000     0.039810000000     1.11954    
Co13     Co     0.005070000000     0.480920000000     0.553700000000     1.12063    
Co14     Co     0.011540000000     0.571140000000     0.589050000000     1.13777    
Co15     Co     0.986650000000     0.481670000000     0.609090000000     0.875528   
Co16     Co     0.082170000000     0.571080000000     0.555510000000     1.16743    
Co17     Co     0.530440000000     0.069330000000     0.050930000000     1.10677    
Co18     Co     0.629120000000     0.093980000000     0.013360000000     1.07582    
Co19     Co     0.599580000000     0.136120000000     0.009590000000     0.902632   
Co20     Co     0.592280000000     0.044690000000     0.078640000000     1.17939    
Co21     Co     0.489600000000     0.004540000000     0.577030000000     1.08684    
Co22     Co     0.573440000000     0.023190000000     0.520950000000     1.13369    
Co23     Co     0.511670000000     0.051960000000     0.508650000000     1.15906    
Co24     Co     0.512940000000     0.958540000000     0.570420000000     0.889424   
Co25     Co     0.596150000000     0.531880000000     0.033310000000     0.956231   
Co26     Co     0.594900000000     0.624870000000     0.085960000000     1.157      
Co27     Co     0.532390000000     0.535080000000     0.074110000000     1.11352    
Co28     Co     0.630780000000     0.605410000000     0.027490000000     1.05295    
Co29     Co     0.508230000000     0.478530000000     0.527170000000     1.04354    
Co30     Co     0.487030000000     0.557070000000     0.569720000000     1.10652    
Co31     Co     0.485280000000     0.478730000000     0.588290000000     1.08539    
Co32     Co     0.567590000000     0.569730000000     0.545710000000     1.12438    
F1       F      0.544670000000     0.495490000000     0.941180000000    -0.449796   
F2       F      0.509580000000     0.510490000000     0.170520000000    -0.457012   
F3       F      0.577530000000     0.656080000000     0.480080000000    -0.456837   
F4       F      0.454810000000     0.074920000000     0.618040000000    -0.44749    
F5       F      0.578970000000     0.012050000000     0.938190000000    -0.444844   
F6       F      0.595670000000     0.034830000000     0.424480000000    -0.459727   
F7       F      0.684650000000     0.726920000000     0.998250000000    -0.451077   
F8       F      0.657490000000     0.500000000000     0.101300000000    -0.449342   
F9       F      0.908900000000     0.439990000000     0.488150000000    -0.435624   
F10      F      0.166010000000     0.627320000000     0.626370000000    -0.454386   
F11      F      0.651240000000     0.560960000000     0.602650000000    -0.452363   
F12      F      0.071280000000     0.428880000000     0.557710000000    -0.453316   
F13      F      0.130490000000     0.526200000000     0.962500000000    -0.455065   
F14      F      0.110930000000     0.582100000000     0.462090000000    -0.453567   
F15      F      0.737660000000     0.137270000000     0.964140000000    -0.44553    
F16      F      0.192950000000     0.658990000000     0.141490000000    -0.455258   
F17      F      0.913520000000     0.481800000000     0.076300000000    -0.43705    
F18      F      0.443840000000     0.551060000000     0.033140000000    -0.454488   
F19      F      0.552730000000     0.681730000000     0.577990000000    -0.455108   
F20      F      0.119390000000     0.145250000000     0.531220000000    -0.440954   
F21      F      0.856770000000     0.957770000000     0.407260000000    -0.444333   
F22      F      0.142770000000     0.043350000000     0.576140000000    -0.436953   
F23      F      0.964810000000     0.610650000000     0.514630000000    -0.448853   
F24      F      0.971610000000     0.367010000000     0.521040000000    -0.431764   
F25      F      0.068420000000     0.116420000000     0.848210000000    -0.446356   
F26      F      0.944960000000     0.944530000000     0.351870000000    -0.442936   
F27      F      0.907480000000     0.985770000000     0.980750000000    -0.454056   
F28      F      0.201650000000     0.144420000000     0.012130000000    -0.443702   
F29      F      0.691810000000     0.078200000000     0.131710000000    -0.458373   
F30      F      0.201800000000     0.124130000000     0.937570000000    -0.44109    
F31      F      0.005490000000     0.628200000000     0.998390000000    -0.453373   
F32      F      0.963540000000     0.381670000000     0.071620000000    -0.4385     
H1       H      0.547920000000     0.503000000000     0.674110000000     0.0381102  
H2       H      0.581320000000     0.624270000000     0.939230000000     0.0350441  
H3       H      0.596680000000     0.551440000000     0.776110000000     0.0441714  
H4       H      0.504180000000     0.577280000000     0.832690000000     0.0417801  
H5       H      0.569800000000     0.624420000000     0.879830000000     0.0703199  
H6       H      0.499310000000     0.573930000000     0.772810000000     0.0430905  
H7       H      0.536240000000     0.502620000000     0.878730000000     0.121374   
H8       H      0.559090000000     0.512640000000     0.732600000000     0.0589923  
H9       H      0.526570000000     0.602160000000     0.722780000000     0.0580944  
H10      H      0.599400000000     0.552400000000     0.835890000000     0.0442943  
H11      H      0.513520000000     0.590040000000     0.664520000000     0.0312907  
H12      H      0.616350000000     0.590980000000     0.454250000000     0.0387759  
H13      H      0.633700000000     0.616150000000     0.177000000000     0.0261758  
H14      H      0.605030000000     0.617060000000     0.342280000000     0.0467811  
H15      H      0.554100000000     0.495170000000     0.279100000000     0.0412775  
H16      H      0.637620000000     0.610820000000     0.236050000000     0.0674055  
H17      H      0.552060000000     0.491170000000     0.338770000000     0.0420058  
H18      H      0.519510000000     0.510410000000     0.233420000000     0.11709    
H19      H      0.629280000000     0.598900000000     0.395670000000     0.0616839  
H20      H      0.511480000000     0.501750000000     0.375450000000     0.056898   
H21      H      0.607200000000     0.621110000000     0.282430000000     0.0394505  
H22      H      0.499770000000     0.494510000000     0.433000000000     0.0299797  
H23      H      0.561380000000     0.934780000000     0.468190000000     0.0376396  
H24      H      0.446800000000     0.598820000000     0.497430000000     0.0252944  
H25      H      0.566060000000     0.825460000000     0.485980000000     0.0421143  
H26      H      0.448240000000     0.704740000000     0.443270000000     0.0382213  
H27      H      0.444970000000     0.656630000000     0.479410000000     0.0665891  
H28      H      0.446150000000     0.765350000000     0.444830000000     0.0434281  
H29      H      0.569300000000     0.714470000000     0.460550000000     0.11641    
H30      H      0.559670000000     0.876480000000     0.449940000000     0.0580734  
H31      H      0.446570000000     0.804850000000     0.492880000000     0.0577077  
H32      H      0.567840000000     0.765040000000     0.486010000000     0.0447297  
H33      H      0.449330000000     0.863770000000     0.511220000000     0.030973   
H34      H      0.458670000000     0.373560000000     0.644670000000     0.0353705  
H35      H      0.543920000000     0.156180000000     0.544750000000     0.0208142  
H36      H      0.432790000000     0.245230000000     0.619280000000     0.0454712  
H37      H      0.562930000000     0.254780000000     0.610220000000     0.0361947  
H38      H      0.543060000000     0.212210000000     0.563630000000     0.0623994  
H39      H      0.559780000000     0.314440000000     0.614400000000     0.0409431  
H40      H      0.458520000000     0.138880000000     0.634970000000     0.116741   
H41      H      0.461790000000     0.313550000000     0.655240000000     0.0584549  
H42      H      0.524880000000     0.336740000000     0.566760000000     0.0536219  
H43      H      0.435640000000     0.185150000000     0.614190000000     0.0428218  
H44      H      0.520400000000     0.394980000000     0.556450000000     0.0217804  
H45      H      0.570390000000     0.977420000000     0.663770000000     0.0289558  
H46      H      0.564540000000     0.116780000000     0.911040000000     0.0235106  
H47      H      0.540480000000     0.982400000000     0.765310000000     0.0442105  
H48      H      0.612340000000     0.113870000000     0.815410000000     0.0399334  
H49      H      0.561510000000     0.105420000000     0.852940000000     0.0660971  
H50      H      0.617240000000     0.108090000000     0.756950000000     0.042508   
H51      H      0.576090000000     0.005670000000     0.875600000000     0.120021   
H52      H      0.584010000000     0.989310000000     0.722280000000     0.0574981  
H53      H      0.574030000000     0.092970000000     0.708380000000     0.0598402  
H54      H      0.535850000000     0.988210000000     0.823820000000     0.0420229  
H55      H      0.561340000000     0.080670000000     0.650170000000     0.0399715  
H56      H      0.617430000000     0.095470000000     0.166310000000     0.04665    
H57      H      0.468940000000     0.009150000000     0.419930000000     0.0207126  
H58      H      0.594050000000     0.117760000000     0.269840000000     0.0439075  
H59      H      0.476480000000     0.995150000000     0.307220000000     0.0375832  
H60      H      0.469250000000     0.020370000000     0.361010000000     0.0637233  
H61      H      0.482810000000     0.011690000000     0.248600000000     0.0412342  
H62      H      0.589970000000     0.045990000000     0.362370000000     0.119025   
H63      H      0.608000000000     0.091240000000     0.224370000000     0.0622952  
H64      H      0.485340000000     0.056850000000     0.203960000000     0.0539529  
H65      H      0.588020000000     0.100710000000     0.328200000000     0.0423258  
H66      H      0.495700000000     0.060650000000     0.145450000000     0.0219521  
H67      H      0.675680000000     0.022970000000     0.994550000000     0.0531995  
H68      H      0.562050000000     0.691720000000     0.029250000000     0.0258838  
H69      H      0.693560000000     0.912430000000     0.015610000000     0.0458946  
H70      H      0.576570000000     0.796820000000     0.965200000000     0.039191   
H71      H      0.569860000000     0.754300000000     0.013080000000     0.0642401  
H72      H      0.576960000000     0.858520000000     0.967910000000     0.0472047  
H73      H      0.687180000000     0.792480000000     0.982220000000     0.115435   
H74      H      0.684210000000     0.968810000000     0.978750000000     0.066411   
H75      H      0.576560000000     0.887270000000     0.025700000000     0.0578195  
H76      H      0.692930000000     0.850150000000     0.013660000000     0.041617   
H77      H      0.569380000000     0.941270000000     0.041710000000     0.031405   
H78      H      0.645770000000     0.228880000000     0.071730000000     0.0338611  
H79      H      0.527210000000     0.438210000000     0.121500000000     0.032491   
H80      H      0.641730000000     0.318260000000     0.140080000000     0.0449026  
H81      H      0.525540000000     0.329180000000     0.099700000000     0.0369978  
H82      H      0.525220000000     0.376570000000     0.133990000000     0.0648028  
H83      H      0.525060000000     0.268270000000     0.092610000000     0.0409561  
H84      H      0.648880000000     0.432100000000     0.113600000000     0.117594   
H85      H      0.646010000000     0.285330000000     0.092550000000     0.0590025  
H86      H      0.524740000000     0.210790000000     0.118630000000     0.05385    
H87      H      0.642070000000     0.379290000000     0.147720000000     0.0424066  
H88      H      0.525360000000     0.154830000000     0.097340000000     0.0234731  
H89      H      0.593210000000     0.158870000000     0.481600000000     0.0234454  
H90      H      0.868690000000     0.434300000000     0.590460000000     0.0214241  
H91      H      0.712630000000     0.277560000000     0.463830000000     0.0435513  
H92      H      0.783250000000     0.320400000000     0.572450000000     0.0384384  
H93      H      0.801600000000     0.385680000000     0.575620000000     0.0634069  
H94      H      0.729640000000     0.254050000000     0.566260000000     0.0417706  
H95      H      0.836820000000     0.383740000000     0.478060000000     0.122158   
H96      H      0.644560000000     0.227800000000     0.481680000000     0.055143   
H97      H      0.721890000000     0.197450000000     0.539280000000     0.058241   
H98      H      0.765830000000     0.346050000000     0.470430000000     0.0414838  
H99      H      0.669950000000     0.129440000000     0.539550000000     0.0275765  
H100     H      0.416820000000     0.874560000000     0.611390000000     0.0282515  
H101     H      0.089420000000     0.683180000000     0.619330000000     0.0194328  
H102     H      0.314290000000     0.803000000000     0.687060000000     0.0436223  
H103     H      0.202940000000     0.796330000000     0.616900000000     0.0366136  
H104     H      0.143450000000     0.744840000000     0.640130000000     0.0637325  
H105     H      0.267120000000     0.856670000000     0.617800000000     0.0406611  
H106     H      0.219260000000     0.694840000000     0.646430000000     0.117622   
H107     H      0.353400000000     0.824470000000     0.630710000000     0.0583013  
H108     H      0.328530000000     0.914090000000     0.656070000000     0.0583181  
H109     H      0.249700000000     0.742960000000     0.687410000000     0.0401422  
H110     H      0.393450000000     0.964200000000     0.637410000000     0.0496945  
H111     H      0.903810000000     0.539150000000     0.565930000000     0.0577426  
H112     H      0.591150000000     0.449790000000     0.543290000000     0.0162921  
H113     H      0.783330000000     0.500330000000     0.658490000000     0.0428117  
H114     H      0.707930000000     0.456260000000     0.551620000000     0.0372743  
H115     H      0.640740000000     0.433010000000     0.561990000000     0.0614167  
H116     H      0.770140000000     0.457020000000     0.560790000000     0.0439204  
H117     H      0.701070000000     0.538840000000     0.618320000000     0.117694   
H118     H      0.835730000000     0.521920000000     0.565560000000     0.064612   
H119     H      0.823680000000     0.461920000000     0.658960000000     0.054131   
H120     H      0.719840000000     0.498130000000     0.649960000000     0.0403194  
H121     H      0.893480000000     0.479500000000     0.658430000000     0.024923   
H122     H      0.384340000000     0.453760000000     0.644790000000     0.0322829  
H123     H      0.160320000000     0.544320000000     0.603900000000     0.0494333  
H124     H      0.278570000000     0.472460000000     0.656220000000     0.0435223  
H125     H      0.178890000000     0.415510000000     0.563670000000     0.0414872  
H126     H      0.204750000000     0.520370000000     0.620340000000     0.0703452  
H127     H      0.237050000000     0.408610000000     0.565780000000     0.0405639  
H128     H      0.119270000000     0.407030000000     0.581380000000     0.113504   
H129     H      0.314620000000     0.430850000000     0.653790000000     0.0580642  
H130     H      0.302690000000     0.471630000000     0.556060000000     0.0580189  
H131     H      0.219290000000     0.478120000000     0.655040000000     0.0391022  
H132     H      0.371220000000     0.494670000000     0.548300000000     0.0319567  
H133     H      0.067900000000     0.502660000000     0.685890000000     0.0333825  
H134     H      0.061520000000     0.589950000000     0.954590000000     0.0360272  
H135     H      0.136690000000     0.562860000000     0.788020000000     0.0448305  
H136     H      0.028160000000     0.550690000000     0.852540000000     0.0394478  
H137     H      0.060410000000     0.591670000000     0.895890000000     0.0679542  
H138     H      0.022030000000     0.551930000000     0.793060000000     0.0424798  
H139     H      0.124150000000     0.528920000000     0.899060000000     0.114867   
H140     H      0.086790000000     0.510870000000     0.744110000000     0.0581172  
H141     H      0.058860000000     0.603070000000     0.745570000000     0.0563184  
H142     H      0.144220000000     0.563870000000     0.848170000000     0.0413468  
H143     H      0.040790000000     0.594720000000     0.687140000000     0.0248732  
H144     H      0.125670000000     0.572000000000     0.193850000000     0.0471859  
H145     H      0.998510000000     0.463280000000     0.457230000000     0.0666945  
H146     H      0.083510000000     0.574130000000     0.290590000000     0.0450381  
H147     H      0.037610000000     0.451510000000     0.356940000000     0.0436028  
H148     H      0.002270000000     0.459530000000     0.398820000000     0.0767713  
H149     H      0.041340000000     0.449860000000     0.297420000000     0.0454213  
H150     H      0.110100000000     0.571900000000     0.400470000000     0.11821    
H151     H      0.124120000000     0.565080000000     0.252870000000     0.0603505  
H152     H      0.010930000000     0.458490000000     0.243370000000     0.0610126  
H153     H      0.079290000000     0.575770000000     0.349490000000     0.0439609  
H154     H      0.013700000000     0.466110000000     0.183590000000     0.0408756  
H155     H      0.028370000000     0.434500000000     0.986540000000     0.037476   
H156     H      0.699640000000     0.224550000000     0.985160000000     0.0245604  
H157     H      0.920540000000     0.318640000000     0.983520000000     0.0458605  
H158     H      0.803550000000     0.310840000000     0.921900000000     0.0384049  
H159     H      0.761680000000     0.279220000000     0.969420000000     0.0684034  
H160     H      0.865170000000     0.373890000000     0.925670000000     0.0431335  
H161     H      0.802250000000     0.200040000000     0.948180000000     0.11613    
H162     H      0.976900000000     0.377220000000     0.957950000000     0.0568921  
H163     H      0.893040000000     0.413460000000     0.976130000000     0.0672331  
H164     H      0.859000000000     0.255840000000     0.979920000000     0.041708   
H165     H      0.945160000000     0.470310000000     0.004690000000     0.0594785  
H166     H      0.441100000000     0.963400000000     0.027790000000     0.0273986  
H167     H      0.166490000000     0.717660000000     0.053200000000     0.0193659  
H168     H      0.336090000000     0.886640000000     0.088410000000     0.0399801  
H169     H      0.322440000000     0.755210000000     0.105380000000     0.0387951  
H170     H      0.231710000000     0.774630000000     0.057080000000     0.0642054  
H171     H      0.388230000000     0.812890000000     0.097760000000     0.0409854  
H172     H      0.261200000000     0.722650000000     0.141400000000     0.116169   
H173     H      0.380210000000     0.903720000000     0.039890000000     0.0553662  
H174     H      0.439890000000     0.880640000000     0.122920000000     0.0563557  
H175     H      0.270870000000     0.829500000000     0.096240000000     0.0364413  
H176     H      0.500860000000     0.940950000000     0.110150000000     0.0260524  
H177     H      0.689990000000     0.534690000000     0.014580000000     0.0431506  
H178     H      0.980620000000     0.594340000000     0.133020000000     0.0178962  
H179     H      0.829380000000     0.573830000000     0.987050000000     0.0463199  
H180     H      0.872650000000     0.611740000000     0.103120000000     0.0386464  
H181     H      0.936270000000     0.616980000000     0.111100000000     0.062722   
H182     H      0.825930000000     0.628340000000     0.074600000000     0.0459432  
H183     H      0.870450000000     0.510800000000     0.055790000000     0.121352   
H184     H      0.752990000000     0.538260000000     0.024380000000     0.0672079  
H185     H      0.812640000000     0.662500000000     0.003360000000     0.0534022  
H186     H      0.877240000000     0.558630000000     0.014690000000     0.0505975  
H187     H      0.747850000000     0.657740000000     0.992220000000     0.0361686  
H188     H      0.216000000000     0.646910000000     0.034010000000     0.027494   
H189     H      0.510130000000     0.647300000000     0.107590000000     0.0197176  
H190     H      0.352460000000     0.686320000000     0.073070000000     0.0406919  
H191     H      0.343950000000     0.556530000000     0.081260000000     0.0437116  
H192     H      0.455810000000     0.660490000000     0.107390000000     0.0654198  
H193     H      0.284400000000     0.560140000000     0.084280000000     0.0455549  
H194     H      0.390470000000     0.569480000000     0.036710000000     0.119655   
H195     H      0.284860000000     0.662120000000     0.038540000000     0.057835   
H196     H      0.258070000000     0.586330000000     0.124310000000     0.0614718  
H197     H      0.413040000000     0.682570000000     0.069650000000     0.0366932  
H198     H      0.190150000000     0.571100000000     0.118600000000     0.0428805  
H199     H      0.844040000000     0.963420000000     0.514290000000     0.0242113  
H200     H      0.638950000000     0.639250000000     0.604290000000     0.043682   
H201     H      0.727280000000     0.844340000000     0.521650000000     0.0439085  
H202     H      0.733470000000     0.768780000000     0.620350000000     0.0390065  
H203     H      0.695130000000     0.704610000000     0.600650000000     0.0702102  
H204     H      0.793690000000     0.826940000000     0.602580000000     0.0423706  
H205     H      0.616330000000     0.749350000000     0.576220000000     0.11567    
H206     H      0.783440000000     0.913930000000     0.539450000000     0.053886   
H207     H      0.831050000000     0.836500000000     0.550210000000     0.0588832  
H208     H      0.667220000000     0.785420000000     0.538480000000     0.044281   
H209     H      0.890670000000     0.886020000000     0.524630000000     0.0317839  
H210     H      0.366670000000     0.400800000000     0.567510000000     0.0331402  
H211     H      0.109510000000     0.149020000000     0.419960000000     0.0236943  
H212     H      0.239740000000     0.345810000000     0.519060000000     0.0401982  
H213     H      0.233510000000     0.255510000000     0.435610000000     0.0379658  
H214     H      0.158750000000     0.218950000000     0.418350000000     0.0649414  
H215     H      0.295560000000     0.316220000000     0.446700000000     0.0414598  
H216     H      0.168770000000     0.218080000000     0.524090000000     0.121391   
H217     H      0.299810000000     0.355590000000     0.547780000000     0.05775    
H218     H      0.336060000000     0.387300000000     0.447990000000     0.0555943  
H219     H      0.177780000000     0.284600000000     0.508220000000     0.0391188  
H220     H      0.403120000000     0.432250000000     0.468740000000     0.0298173  
H221     H      0.597030000000     0.927000000000     0.541360000000     0.0275047  
H222     H      0.915600000000     0.082860000000     0.441540000000     0.0204472  
H223     H      0.715860000000     0.944460000000     0.510490000000     0.0395455  
H224     H      0.784170000000     0.061300000000     0.437070000000     0.0409727  
H225     H      0.852720000000     0.076380000000     0.452760000000     0.0640782  
H226     H      0.729030000000     0.052600000000     0.468000000000     0.0487761  
H227     H      0.793070000000     0.956260000000     0.421820000000     0.119671   
H228     H      0.649210000000     0.931210000000     0.509400000000     0.0544753  
H229     H      0.715760000000     0.056460000000     0.523350000000     0.0555475  
H230     H      0.770340000000     0.952840000000     0.479030000000     0.0390722  
H231     H      0.662600000000     0.051260000000     0.554110000000     0.0251993  
H232     H      0.371760000000     0.938270000000     0.561480000000     0.0318459  
H233     H      0.103220000000     0.982200000000     0.478680000000     0.019564   
H234     H      0.277110000000     0.969730000000     0.579510000000     0.044813   
H235     H      0.215820000000     0.990130000000     0.476050000000     0.0357394  
H236     H      0.150480000000     0.961150000000     0.484040000000     0.0605268  
H237     H      0.270790000000     0.979620000000     0.473680000000     0.039846   
H238     H      0.195110000000     0.021720000000     0.575960000000     0.11748    
H239     H      0.306100000000     0.930770000000     0.562420000000     0.0551263  
H240     H      0.338520000000     0.019630000000     0.485760000000     0.0560391  
H241     H      0.218740000000     0.976730000000     0.581910000000     0.04124    
H242     H      0.402360000000     0.025460000000     0.484960000000     0.0226932  
H243     H      0.964620000000     0.872540000000     0.479850000000     0.0329756  
H244     H      0.096820000000     0.668640000000     0.502410000000     0.0329145  
H245     H      0.978470000000     0.774600000000     0.433390000000     0.0465587  
H246     H      0.095830000000     0.782170000000     0.494210000000     0.0367662  
H247     H      0.099460000000     0.726740000000     0.476880000000     0.0665131  
H248     H      0.092890000000     0.842100000000     0.483220000000     0.0410095  
H249     H      0.974200000000     0.674730000000     0.489050000000     0.118292   
H250     H      0.974230000000     0.816790000000     0.480550000000     0.0594197  
H251     H      0.084060000000     0.887090000000     0.432650000000     0.054517   
H252     H      0.981850000000     0.714990000000     0.442930000000     0.0435387  
H253     H      0.072750000000     0.942630000000     0.430880000000     0.0215117  
H254     H      0.025180000000     0.152330000000     0.490710000000     0.0320374  
H255     H      0.011190000000     0.391980000000     0.628330000000     0.024353   
H256     H      0.082970000000     0.275140000000     0.536010000000     0.0428651  
H257     H      0.989110000000     0.258400000000     0.619640000000     0.0389204  
H258     H      0.028300000000     0.340540000000     0.632290000000     0.0662     
H259     H      0.002900000000     0.205310000000     0.611540000000     0.0418834  
H260     H      0.993040000000     0.315650000000     0.530210000000     0.122718   
H261     H      0.032480000000     0.211850000000     0.510470000000     0.0577951  
H262     H      0.053710000000     0.179720000000     0.609030000000     0.0611712  
H263     H      0.068490000000     0.327380000000     0.543620000000     0.0492846  
H264     H      0.046600000000     0.119130000000     0.587830000000     0.0422979  
H265     H      0.933430000000     0.006090000000     0.590880000000     0.0220542  
H266     H      0.031000000000     0.988750000000     0.867490000000     0.0206793  
H267     H      0.981280000000     0.049880000000     0.690460000000     0.0427931  
H268     H      0.029690000000     0.975150000000     0.759980000000     0.0386565  
H269     H      0.009400000000     0.972230000000     0.811280000000     0.0648099  
H270     H      0.009710000000     0.957490000000     0.703250000000     0.0424612  
H271     H      0.046280000000     0.093550000000     0.788750000000     0.119509   
H272     H      0.938850000000     0.008800000000     0.650210000000     0.0548027  
H273     H      0.028130000000     0.975380000000     0.650670000000     0.0645941  
H274     H      0.997110000000     0.064650000000     0.748210000000     0.0427422  
H275     H      0.019790000000     0.970430000000     0.591740000000     0.0414805  
H276     H      0.056380000000     0.112640000000     0.097770000000     0.0241334  
H277     H      0.052870000000     0.066260000000     0.360870000000     0.0253331  
H278     H      0.987380000000     0.030890000000     0.182200000000     0.043187   
H279     H      0.080840000000     0.023700000000     0.266330000000     0.0380058  
H280     H      0.063900000000     0.070580000000     0.303330000000     0.0651814  
H281     H      0.100230000000     0.040550000000     0.209300000000     0.0414828  
H282     H      0.961520000000     0.955760000000     0.290150000000     0.119238   
H283     H      0.041410000000     0.095160000000     0.154940000000     0.0556052  
H284     H      0.080280000000     0.011240000000     0.151050000000     0.0569686  
H285     H      0.967830000000     0.013410000000     0.239270000000     0.0439844  
H286     H      0.094270000000     0.028790000000     0.093420000000     0.0337144  
H287     H      0.701890000000     0.718860000000     0.098970000000     0.0256614  
H288     H      0.949830000000     0.921590000000     0.922250000000     0.0163118  
H289     H      0.830340000000     0.820320000000     0.073890000000     0.0422807  
H290     H      0.831220000000     0.804550000000     0.954050000000     0.0407454  
H291     H      0.898190000000     0.857930000000     0.941500000000     0.0630697  
H292     H      0.793960000000     0.746510000000     0.989170000000     0.0538318  
H293     H      0.853620000000     0.915870000000     0.997400000000     0.118668   
H294     H      0.757940000000     0.776720000000     0.077310000000     0.0614085  
H295     H      0.798260000000     0.704380000000     0.038490000000     0.0532524  
H296     H      0.867680000000     0.877900000000     0.039200000000     0.045801   
H297     H      0.740920000000     0.646160000000     0.061200000000     0.0324051  
H298     H      0.497040000000     0.409610000000     0.032770000000     0.0321985  
H299     H      0.144280000000     0.217710000000     0.022080000000     0.0167322  
H300     H      0.374740000000     0.316160000000     0.066450000000     0.0419079  
H301     H      0.265920000000     0.316530000000     0.997360000000     0.0410176  
H302     H      0.208110000000     0.276060000000     0.034990000000     0.0637525  
H303     H      0.332460000000     0.373040000000     0.995400000000     0.0472887  
H304     H      0.265630000000     0.208900000000     0.025340000000     0.120023   
H305     H      0.431050000000     0.351550000000     0.033440000000     0.0566932  
H306     H      0.380480000000     0.426700000000     0.025170000000     0.0645895  
H307     H      0.308040000000     0.258960000000     0.067460000000     0.0398539  
H308     H      0.445930000000     0.483100000000     0.023020000000     0.0660764  
H309     H      0.952160000000     0.029630000000     0.083880000000     0.0312458  
H310     H      0.740270000000     0.156760000000     0.042170000000     0.0358462  
H311     H      0.834720000000     0.033490000000     0.096590000000     0.0455572  
H312     H      0.862970000000     0.170100000000     0.076840000000     0.0403422  
H313     H      0.802530000000     0.157760000000     0.049350000000     0.0737334  
H314     H      0.913040000000     0.153310000000     0.066010000000     0.0413129  
H315     H      0.759910000000     0.083290000000     0.135620000000     0.118688   
H316     H      0.908400000000     0.047560000000     0.109130000000     0.0568114  
H317     H      0.904700000000     0.108070000000     0.019310000000     0.0606721  
H318     H      0.784220000000     0.049720000000     0.106730000000     0.0441963  
H319     H      0.946640000000     0.089360000000     0.995050000000     0.0374671  
H320     H      0.502280000000     0.159540000000     0.987380000000     0.0267709  
H321     H      0.150600000000     0.004090000000     0.987010000000     0.0221349  
H322     H      0.380010000000     0.138150000000     0.005350000000     0.040878   
H323     H      0.270130000000     0.018680000000     0.952880000000     0.0379641  
H324     H      0.215920000000     0.010670000000     0.994640000000     0.0651631  
H325     H      0.336620000000     0.028060000000     0.956440000000     0.0411483  
H326     H      0.267340000000     0.125200000000     0.948460000000     0.12458    
H327     H      0.436990000000     0.152540000000     0.979220000000     0.055564   
H328     H      0.384360000000     0.026900000000     0.991200000000     0.0523882  
H329     H      0.313720000000     0.129420000000     0.999900000000     0.0465541  
H330     H      0.449460000000     0.034940000000     0.997100000000     0.02557    
H331     H      0.013440000000     0.914110000000     0.972790000000     0.017455   
H332     H      0.026870000000     0.659480000000     0.106050000000     0.017393   
H333     H      0.032530000000     0.817040000000     0.995910000000     0.0406577  
H334     H      0.948060000000     0.718840000000     0.078460000000     0.035285   
H335     H      0.003950000000     0.705380000000     0.097680000000     0.0633393  
H336     H      0.949700000000     0.781780000000     0.072970000000     0.040162   
H337     H      0.983280000000     0.679660000000     0.994570000000     0.115579   
H338     H      0.997900000000     0.847460000000     0.977930000000     0.0539266  
H339     H      0.990770000000     0.851210000000     0.082720000000     0.0545524  
H340     H      0.029250000000     0.754350000000     0.000460000000     0.0411531  
H341     H      0.003700000000     0.918660000000     0.076050000000     0.0292478  
H342     H      0.992590000000     0.150270000000     0.951020000000     0.0314095  
H343     H      0.096860000000     0.443660000000     0.088110000000     0.0211193  
H344     H      0.999770000000     0.272880000000     0.961240000000     0.0432842  
H345     H      0.088740000000     0.329900000000     0.060070000000     0.0373     
H346     H      0.100850000000     0.393760000000     0.060270000000     0.0660954  
H347     H      0.095500000000     0.284160000000     0.027190000000     0.040466   
H348     H      0.973870000000     0.330820000000     0.043760000000     0.113252   
H349     H      0.987720000000     0.204080000000     0.971570000000     0.0553234  
H350     H      0.114640000000     0.277530000000     0.970000000000     0.0575485  
H351     H      0.993800000000     0.319990000000     0.993380000000     0.0362226  
H352     H      0.118450000000     0.222890000000     0.949040000000     0.033057   
N1       N      0.566430000000     0.563920000000     0.942930000000    -0.253076   
N2       N      0.528910000000     0.545040000000     0.665150000000    -0.198777   
N3       N      0.574470000000     0.566920000000     0.170860000000    -0.25796    
N4       N      0.557430000000     0.541940000000     0.447990000000    -0.209237   
N5       N      0.509360000000     0.623970000000     0.492470000000    -0.247299   
N6       N      0.506310000000     0.903490000000     0.492340000000    -0.198311   
N7       N      0.501520000000     0.114680000000     0.578190000000    -0.257947   
N8       N      0.489110000000     0.388560000000     0.599770000000    -0.188438   
N9       N      0.573520000000     0.069030000000     0.926700000000    -0.253369   
N10      N      0.563160000000     0.027210000000     0.653050000000    -0.202285   
N11      N      0.529460000000     0.022630000000     0.425260000000    -0.260358   
N12      N      0.556940000000     0.077120000000     0.151700000000    -0.208029   
N13      N      0.619940000000     0.705420000000     0.015960000000    -0.253973   
N14      N      0.622070000000     0.986160000000     0.019420000000    -0.201117   
N15      N      0.588200000000     0.469760000000     0.109060000000    -0.247894   
N16      N      0.585200000000     0.187850000000     0.082030000000    -0.1996     
N17      N      0.891040000000     0.437840000000     0.543140000000    -0.254687   
N18      N      0.627590000000     0.139310000000     0.511120000000    -0.209551   
N19      N      0.123370000000     0.654240000000     0.620300000000    -0.262838   
N20      N      0.409410000000     0.922930000000     0.622520000000    -0.188852   
N21      N      0.617230000000     0.503530000000     0.569840000000    -0.257557   
N22      N      0.903440000000     0.509780000000     0.611900000000    -0.202078   
N23      N      0.114960000000     0.490240000000     0.582710000000    -0.260709   
N24      N      0.382870000000     0.476370000000     0.596200000000    -0.202534   
N25      N      0.093650000000     0.559100000000     0.961330000000    -0.251803   
N26      N      0.051680000000     0.547190000000     0.682440000000    -0.197773   
N27      N      0.051310000000     0.519760000000     0.462690000000    -0.253204   
N28      N      0.068980000000     0.520430000000     0.184410000000    -0.203281   
N29      N      0.714590000000     0.180470000000     0.976370000000    -0.24083    
N30      N      0.989950000000     0.455490000000     0.998820000000    -0.200235   
N31      N      0.175810000000     0.687030000000     0.094680000000    -0.262612   
N32      N      0.475070000000     0.957050000000     0.068650000000    -0.210925   
N33      N      0.953300000000     0.541850000000     0.104790000000    -0.256362   
N34      N      0.714460000000     0.596520000000     0.004780000000    -0.18826    
N35      N      0.481070000000     0.600270000000     0.073290000000    -0.260293   
N36      N      0.197770000000     0.605990000000     0.074650000000    -0.196842   
N37      N      0.595550000000     0.655900000000     0.590570000000    -0.257784   
N38      N      0.871600000000     0.928200000000     0.517480000000    -0.208229   
N39      N      0.111910000000     0.143590000000     0.472520000000    -0.260367   
N40      N      0.389910000000     0.419150000000     0.519590000000    -0.208877   
N41      N      0.890970000000     0.022720000000     0.428200000000    -0.250237   
N42      N      0.625540000000     0.988930000000     0.549240000000    -0.209683   
N43      N      0.120250000000     0.013080000000     0.524090000000    -0.236117   
N44      N      0.392230000000     0.983260000000     0.523910000000    -0.210126   
N45      N      0.034690000000     0.639000000000     0.510950000000    -0.251256   
N46      N      0.018150000000     0.911960000000     0.455540000000    -0.207521   
N47      N      0.993480000000     0.384190000000     0.577000000000    -0.22567    
N48      N      0.034510000000     0.130960000000     0.537980000000    -0.192879   
N49      N      0.050260000000     0.050110000000     0.861260000000    -0.255363   
N50      N      0.977370000000     0.989650000000     0.586900000000    -0.200021   
N51      N      0.001660000000     0.007960000000     0.359890000000    -0.25518    
N52      N      0.075000000000     0.070940000000     0.090980000000    -0.198562   
N53      N      0.933670000000     0.954310000000     0.951560000000    -0.258607   
N54      N      0.715540000000     0.678240000000     0.078570000000    -0.206407   
N55      N      0.168720000000     0.181000000000     0.014920000000    -0.256568   
N56      N      0.476300000000     0.450500000000     0.028150000000    -0.201938   
N57      N      0.713420000000     0.116960000000     0.082600000000    -0.26042    
N58      N      0.953030000000     0.058600000000     0.037910000000    -0.198565   
N59      N      0.171260000000     0.060140000000     0.962850000000    -0.254603   
N60      N      0.480650000000     0.097890000000     0.993080000000    -0.206788   
N61      N      0.019450000000     0.643390000000     0.055300000000    -0.253711   
N62      N      0.010950000000     0.921690000000     0.024290000000    -0.197651   
N63      N      0.033820000000     0.417810000000     0.080580000000    -0.23253    
N64      N      0.055980000000     0.182290000000     0.949780000000    -0.206708   
O1       O      0.031900000000     0.117290000000     0.956410000000    -0.435522   
O2       O      0.998590000000     0.991220000000     0.938450000000    -0.450492   
O3       O      0.071450000000     0.090410000000     0.906010000000    -0.413186   
O4       O      0.996640000000     0.035080000000     0.038730000000    -0.376012   
O5       O      0.065920000000     0.032950000000     0.911790000000    -0.450852   
O6       O      0.992590000000     0.066830000000     0.996580000000    -0.432779   
O7       O      0.981700000000     0.996050000000     0.986400000000    -0.412935   
O8       O      0.091480000000     0.151500000000     0.943910000000    -0.422124   
O9       O      0.059270000000     0.093690000000     0.043030000000    -0.43671    
O10      O      0.104330000000     0.027600000000     0.970650000000    -0.456787   
O11      O      0.136680000000     0.127890000000     0.982560000000    -0.426139   
O12      O      0.013010000000     0.978170000000     0.040270000000    -0.388889   
O13      O      0.033770000000     0.977260000000     0.992450000000    -0.518841   
O14      O      0.101270000000     0.149060000000     0.002800000000    -0.43813    
O15      O      0.075910000000     0.049170000000     0.040390000000    -0.427707   
O16      O      0.129270000000     0.079850000000     0.939820000000    -0.419681   
O17      O      0.056670000000     0.065440000000     0.975940000000    -0.536963   
O18      O      0.024370000000     0.034120000000     0.410260000000    -0.463813   
O19      O      0.008720000000     0.085440000000     0.497820000000    -0.452176   
O20      O      0.923390000000     0.988530000000     0.437340000000    -0.396712   
O21      O      0.079850000000     0.084580000000     0.499430000000    -0.402567   
O22      O      0.953520000000     0.049950000000     0.451470000000    -0.43658    
O23      O      0.069370000000     0.084700000000     0.448230000000    -0.448845   
O24      O      0.034750000000     0.072120000000     0.541520000000    -0.352446   
O25      O      0.974420000000     0.975180000000     0.408680000000    -0.399257   
O26      O      0.079250000000     0.024880000000     0.488800000000    -0.485331   
O27      O      0.911320000000     0.989370000000     0.495280000000    -0.45129    
O28      O      0.981400000000     0.939090000000     0.467620000000    -0.468915   
O29      O      0.002810000000     0.989100000000     0.538110000000    -0.433386   
O30      O      0.968240000000     0.018640000000     0.539780000000    -0.437597   
O31      O      0.035220000000     0.975810000000     0.442140000000    -0.449862   
O32      O      0.080510000000     0.035900000000     0.542120000000    -0.346685   
O33      O      0.930070000000     0.947060000000     0.493960000000    -0.453949   
O34      O      0.998810000000     0.018090000000     0.475910000000    -0.567714   
O35      O      0.048600000000     0.483390000000     0.028680000000    -0.449951   
O36      O      0.053450000000     0.621480000000     0.088980000000    -0.456496   
O37      O      0.986210000000     0.512010000000     0.089730000000    -0.403438   
O38      O      0.069120000000     0.566020000000     0.007950000000    -0.459301   
O39      O      0.016450000000     0.559660000000     0.124480000000    -0.455806   
O40      O      0.112030000000     0.547620000000     0.014090000000    -0.368612   
O41      O      0.045240000000     0.607250000000     0.036490000000    -0.394813   
O42      O      0.007450000000     0.500610000000     0.038980000000    -0.406426   
O43      O      0.134580000000     0.556380000000     0.080660000000    -0.423378   
O44      O      0.089600000000     0.563800000000     0.141680000000    -0.453207   
O45      O      0.001740000000     0.452290000000     0.088550000000    -0.349273   
O46      O      0.118170000000     0.650510000000     0.064860000000    -0.474965   
O47      O      0.126810000000     0.625630000000     0.109910000000    -0.4291     
O48      O      0.067600000000     0.483560000000     0.093310000000    -0.459138   
O49      O      0.144460000000     0.605380000000     0.045940000000    -0.412448   
O50      O      0.039540000000     0.506490000000     0.132130000000    -0.401285   
O51      O      0.067310000000     0.559320000000     0.073620000000    -0.588764   
O52      O      0.957690000000     0.478570000000     0.536650000000    -0.386725   
O53      O      0.004840000000     0.586570000000     0.546330000000    -0.409444   
O54      O      0.957550000000     0.503900000000     0.629350000000    -0.396392   
O55      O      0.072480000000     0.550850000000     0.512350000000    -0.429548   
O56      O      0.959430000000     0.533200000000     0.584020000000    -0.462949   
O57      O      0.019740000000     0.493040000000     0.510320000000    -0.417892   
O58      O      0.066710000000     0.608340000000     0.535940000000    -0.433989   
O59      O      0.938490000000     0.452840000000     0.583920000000    -0.460154   
O60      O      0.054860000000     0.482330000000     0.565180000000    -0.411855   
O61      O      0.022770000000     0.559410000000     0.635640000000    -0.421154   
O62      O      0.000320000000     0.440850000000     0.598260000000    -0.419854   
O63      O      0.099900000000     0.594820000000     0.596650000000    -0.43828    
O64      O      0.061560000000     0.618520000000     0.595430000000    -0.476598   
O65      O      0.983770000000     0.428790000000     0.545480000000    -0.35264    
O66      O      0.104180000000     0.541180000000     0.571330000000    -0.464948   
O67      O      0.030540000000     0.507520000000     0.637880000000    -0.419209   
O68      O      0.024570000000     0.531520000000     0.572100000000    -0.574525   
O69      O      0.520630000000     0.072540000000     0.006060000000    -0.453303   
O70      O      0.639700000000     0.051210000000     0.019460000000    -0.398123   
O71      O      0.586540000000     0.112640000000     0.967230000000    -0.445814   
O72      O      0.537630000000     0.005760000000     0.083600000000    -0.462147   
O73      O      0.593920000000     0.063290000000     0.979460000000    -0.399985   
O74      O      0.507070000000     0.016160000000     0.042030000000    -0.457334   
O75      O      0.591520000000     0.009610000000     0.049110000000    -0.468578   
O76      O      0.547920000000     0.133920000000     0.004770000000    -0.4017     
O77      O      0.532690000000     0.063030000000     0.098350000000    -0.452814   
O78      O      0.669830000000     0.114810000000     0.985040000000    -0.367222   
O79      O      0.612260000000     0.163250000000     0.049020000000    -0.415512   
O80      O      0.647380000000     0.073930000000     0.081930000000    -0.452827   
O81      O      0.668160000000     0.123500000000     0.048450000000    -0.429851   
O82      O      0.550900000000     0.124520000000     0.063250000000    -0.429133   
O83      O      0.593200000000     0.077180000000     0.110510000000    -0.463288   
O84      O      0.656190000000     0.158380000000     0.001770000000    -0.445337   
O85      O      0.585310000000     0.080140000000     0.040920000000    -0.561575   
O86      O      0.442480000000     0.976010000000     0.548280000000    -0.429459   
O87      O      0.545170000000     0.967820000000     0.507270000000    -0.423731   
O88      O      0.501800000000     0.018790000000     0.473670000000    -0.477677   
O89      O      0.460740000000     0.939650000000     0.589060000000    -0.434886   
O90      O      0.562400000000     0.031380000000     0.475510000000    -0.421902   
O91      O      0.457170000000     0.986720000000     0.611930000000    -0.390173   
O92      O      0.488830000000     0.931010000000     0.531320000000    -0.410358   
O93      O      0.457160000000     0.024210000000     0.514000000000    -0.481533   
O94      O      0.533220000000     0.034220000000     0.605470000000    -0.433011   
O95      O      0.602450000000     0.076370000000     0.530420000000    -0.461274   
O96      O      0.520900000000     0.087940000000     0.540570000000    -0.486339   
O97      O      0.561000000000     0.956550000000     0.563070000000    -0.397336   
O98      O      0.591040000000     0.017430000000     0.563010000000    -0.455642   
O99      O      0.481890000000     0.049000000000     0.577450000000    -0.385056   
O100     O      0.538050000000     0.982480000000     0.611730000000    -0.432      
O101     O      0.565010000000     0.089640000000     0.497440000000    -0.45843    
O102     O      0.524120000000     0.015630000000     0.541460000000    -0.564424   
O103     O      0.544280000000     0.482370000000     0.035700000000    -0.39699    
O104     O      0.588880000000     0.651660000000     0.049260000000    -0.474877   
O105     O      0.507440000000     0.563090000000     0.060140000000    -0.425227   
O106     O      0.597200000000     0.598250000000     0.989810000000    -0.435038   
O107     O      0.541070000000     0.609600000000     0.094030000000    -0.466605   
O108     O      0.578890000000     0.536970000000     0.989860000000    -0.407167   
O109     O      0.639610000000     0.659290000000     0.024320000000    -0.36402    
O110     O      0.516980000000     0.516410000000     0.031570000000    -0.440628   
O111     O      0.650920000000     0.564450000000     0.021330000000    -0.45741    
O112     O      0.601330000000     0.600560000000     0.123720000000    -0.482927   
O113     O      0.553680000000     0.500940000000     0.091650000000    -0.42255    
O114     O      0.667630000000     0.615820000000     0.065210000000    -0.415942   
O115     O      0.650250000000     0.653310000000     0.085290000000    -0.473363   
O116     O      0.613320000000     0.523470000000     0.074970000000    -0.392294   
O117     O      0.674250000000     0.623990000000     0.001020000000    -0.37994    
O118     O      0.541510000000     0.550530000000     0.119990000000    -0.410944   
O119     O      0.585230000000     0.577340000000     0.056170000000    -0.550782   
O120     O      0.455790000000     0.460200000000     0.512320000000    -0.450573   
O121     O      0.480870000000     0.569050000000     0.525520000000    -0.438531   
O122     O      0.443800000000     0.482730000000     0.609820000000    -0.392907   
O123     O      0.575180000000     0.556690000000     0.502630000000    -0.44549    
O124     O      0.437270000000     0.512100000000     0.566010000000    -0.459182   
O125     O      0.517530000000     0.508320000000     0.489550000000    -0.46647    
O126     O      0.545640000000     0.599590000000     0.520550000000    -0.388624   
O127     O      0.437600000000     0.443940000000     0.561160000000    -0.4295     
O128     O      0.562420000000     0.491870000000     0.537150000000    -0.460679   
O129     O      0.497840000000     0.549400000000     0.616700000000    -0.427996   
O130     O      0.473720000000     0.435200000000     0.613670000000    -0.402506   
O131     O      0.572000000000     0.590320000000     0.587090000000    -0.458279   
O132     O      0.531650000000     0.609910000000     0.575460000000    -0.415177   
O133     O      0.497310000000     0.439430000000     0.564770000000    -0.479213   
O134     O      0.590990000000     0.543740000000     0.567440000000    -0.427233   
O135     O      0.524100000000     0.511010000000     0.619460000000    -0.428588   
O136     O      0.510320000000     0.524030000000     0.555030000000    -0.573972   


