data_structure

_audit_creation_method RASPA-1.0
_audit_creation_date 2023-5-9
_audit_author_name 'Poobodin Mano'

_cell_length_a    48.352
_cell_length_b    48.9693
_cell_length_c    48.6958
_cell_angle_alpha 90
_cell_angle_beta  90
_cell_angle_gamma 90
_cell_volume      115300

_symmetry_cell_setting          triclinic
_symmetry_space_group_name_Hall 'P 1'
_symmetry_space_group_name_H-M  'P 1'
_symmetry_Int_Tables_number     1

_symmetry_equiv_pos_as_xyz 'x,y,z'

loop_
_atom_site_label
_atom_site_type_symbol
_atom_site_fract_x
_atom_site_fract_y
_atom_site_fract_z
_atom_site_charge
C1       C      0.499290000000     0.060930000000     0.206430000000     0.401952   
C2       C      0.072410000000     0.499200000000     0.306830000000     0.398565   
C3       C      0.501350000000     0.069420000000     0.306250000000     0.399243   
C4       C      0.063520000000     0.491930000000     0.205510000000     0.400382   
C5       C      0.014860000000     0.442780000000     0.214860000000     0.39253    
C6       C      0.451920000000     0.015410000000     0.309750000000     0.396078   
C7       C      0.444770000000     0.011370000000     0.215190000000     0.392601   
C8       C      0.016170000000     0.450150000000     0.309830000000     0.394948   
C9       C      0.019280000000     0.203470000000     0.066810000000     0.401832   
C10      C      0.457880000000     0.310260000000     0.501750000000     0.402163   
C11      C      0.027210000000     0.307870000000     0.067330000000     0.40151    
C12      C      0.450390000000     0.211060000000     0.497720000000     0.399913   
C13      C      0.502690000000     0.209980000000     0.448500000000     0.395066   
C14      C      0.078290000000     0.296330000000     0.015510000000     0.394183   
C15      C      0.069420000000     0.205760000000     0.016280000000     0.395828   
C16      C      0.507540000000     0.306710000000     0.448590000000     0.396498   
C17      C      0.312970000000     0.448800000000     0.016800000000     0.396533   
C18      C      0.217080000000     0.011050000000     0.443740000000     0.394894   
C19      C      0.216450000000     0.440350000000     0.012410000000     0.392932   
C20      C      0.306520000000     0.012440000000     0.448600000000     0.393707   
C21      C      0.312060000000     0.065470000000     0.494780000000     0.4017     
C22      C      0.205190000000     0.487910000000     0.060840000000     0.402421   
C23      C      0.308200000000     0.498500000000     0.069250000000     0.398168   
C24      C      0.207130000000     0.060160000000     0.500290000000     0.40271    
C25      C      0.418430000000     0.370890000000     0.021330000000    -0.0860258  
C26      C      0.391980000000     0.364220000000     0.511860000000     0.0348228  
C27      C      0.387500000000     0.338410000000     0.500460000000    -0.0845873  
C28      C      0.409720000000     0.320330000000     0.497540000000     0.0701427  
C29      C      0.440010000000     0.352320000000     0.018400000000     0.0711144  
C30      C      0.370080000000     0.385230000000     0.011880000000     0.0345568  
C31      C      0.344110000000     0.380630000000     0.023760000000    -0.0844136  
C32      C      0.324790000000     0.401970000000     0.024910000000     0.0690232  
C33      C      0.355960000000     0.431250000000     0.501470000000     0.0704611  
C34      C      0.375670000000     0.410690000000     0.500300000000    -0.0859699  
C35      C      0.338100000000     0.135620000000     0.986870000000    -0.083855   
C36      C      0.365170000000     0.132800000000     0.496820000000     0.0350461  
C37      C      0.374050000000     0.106820000000     0.505000000000    -0.0848215  
C38      C      0.356010000000     0.084780000000     0.504180000000     0.0715561  
C39      C      0.320540000000     0.112840000000     0.985950000000     0.0702804  
C40      C      0.384550000000     0.156340000000     0.498820000000     0.0349787  
C41      C      0.385840000000     0.176680000000     0.978540000000    -0.0832911  
C42      C      0.407090000000     0.196190000000     0.979280000000     0.0704703  
C43      C      0.424700000000     0.176600000000     0.520210000000     0.0721383  
C44      C      0.403520000000     0.157460000000     0.520510000000    -0.0851265  
C45      C      0.143900000000     0.329980000000     0.032180000000    -0.0822072  
C46      C      0.147820000000     0.346150000000     0.008630000000     0.0339014  
C47      C      0.130500000000     0.341340000000     0.486020000000    -0.0840566  
C48      C      0.108090000000     0.323640000000     0.488370000000     0.0708298  
C49      C      0.121710000000     0.311480000000     0.033430000000     0.0693356  
C50      C      0.167610000000     0.369710000000     0.008260000000     0.0338729  
C51      C      0.160920000000     0.393350000000     0.993420000000    -0.0832937  
C52      C      0.178110000000     0.416100000000     0.994220000000     0.0703643  
C53      C      0.209000000000     0.393300000000     0.024160000000     0.0684299  
C54      C      0.192300000000     0.369800000000     0.023510000000    -0.0825161  
C55      C      0.108300000000     0.145260000000     0.495680000000    -0.0857741  
C56      C      0.132340000000     0.147840000000     0.011270000000     0.0341423  
C57      C      0.136180000000     0.171480000000     0.027030000000    -0.0838089  
C58      C      0.115260000000     0.191310000000     0.028000000000     0.0690924  
C59      C      0.088170000000     0.165460000000     0.496790000000     0.0706687  
C60      C      0.152760000000     0.125400000000     0.511060000000     0.0348846  
C61      C      0.144110000000     0.098550000000     0.515850000000    -0.0853231  
C62      C      0.162740000000     0.077040000000     0.512850000000     0.0707305  
C63      C      0.198380000000     0.108110000000     0.000810000000     0.0695211  
C64      C      0.180340000000     0.130180000000     0.004060000000    -0.0846934  
C65      C      0.380410000000     0.017300000000     0.335370000000    -0.0828931  
C66      C      0.383820000000     0.007270000000     0.362160000000     0.0338767  
C67      C      0.410420000000     0.499350000000     0.370380000000    -0.0840738  
C68      C      0.432610000000     0.501570000000     0.352350000000     0.0704356  
C69      C      0.403300000000     0.019680000000     0.317880000000     0.0688387  
C70      C      0.360450000000     0.006140000000     0.382160000000     0.0344631  
C71      C      0.339590000000     0.026090000000     0.382340000000    -0.0828708  
C72      C      0.320370000000     0.026860000000     0.403850000000     0.0699468  
C73      C      0.341180000000     0.488090000000     0.424330000000     0.0708088  
C74      C      0.360070000000     0.486210000000     0.402830000000    -0.0844125  
C75      C      0.141870000000     0.485410000000     0.334080000000    -0.0846501  
C76      C      0.144140000000     0.505760000000     0.354140000000     0.0345286  
C77      C      0.122740000000     0.024710000000     0.356880000000    -0.0847258  
C78      C      0.099100000000     0.022360000000     0.340640000000     0.070293   
C79      C      0.118190000000     0.484130000000     0.317530000000     0.069747   
C80      C      0.166890000000     0.005540000000     0.374450000000     0.033902   
C81      C      0.169430000000     0.483480000000     0.392420000000    -0.0846348  
C82      C      0.187220000000     0.485300000000     0.414890000000     0.0700572  
C83      C      0.202160000000     0.029200000000     0.400660000000     0.0693586  
C84      C      0.183850000000     0.028390000000     0.378340000000    -0.0842892  
C85      C      0.128770000000     0.475890000000     0.170810000000    -0.0838686  
C86      C      0.126510000000     0.491780000000     0.146940000000     0.0352147  
C87      C      0.103460000000     0.008950000000     0.144210000000    -0.0851952  
C88      C      0.082780000000     0.008840000000     0.164070000000     0.0714934  
C89      C      0.107960000000     0.476860000000     0.190720000000     0.0710872  
C90      C      0.147410000000     0.490030000000     0.124550000000     0.0353263  
C91      C      0.175450000000     0.485050000000     0.130090000000    -0.0838072  
C92      C      0.194520000000     0.483810000000     0.108520000000     0.0708652  
C93      C      0.158920000000     0.492630000000     0.076260000000     0.0723599  
C94      C      0.139310000000     0.493320000000     0.097120000000    -0.0848477  
C95      C      0.359590000000     0.024570000000     0.118130000000    -0.0841123  
C96      C      0.356530000000     0.506340000000     0.139980000000     0.034205   
C97      C      0.335950000000     0.486330000000     0.138400000000    -0.0845257  
C98      C      0.319180000000     0.484640000000     0.115020000000     0.0695368  
C99      C      0.343010000000     0.021860000000     0.094770000000     0.0695908  
C100     C      0.376890000000     0.006340000000     0.162680000000     0.0337681  
C101     C      0.380010000000     0.028910000000     0.180080000000    -0.0840659  
C102     C      0.401820000000     0.029540000000     0.199080000000     0.0688847  
C103     C      0.417160000000     0.486130000000     0.183800000000     0.0701372  
C104     C      0.395200000000     0.484470000000     0.165310000000    -0.0847968  
C105     C      0.028540000000     0.118330000000     0.355880000000    -0.0845641  
C106     C      0.506870000000     0.137260000000     0.357780000000     0.0347208  
C107     C      0.484800000000     0.134860000000     0.339170000000    -0.0829329  
C108     C      0.483950000000     0.112830000000     0.320740000000     0.0701744  
C109     C      0.026540000000     0.096240000000     0.338050000000     0.0714601  
C110     C      0.506500000000     0.157480000000     0.380730000000     0.0345174  
C111     C      0.017520000000     0.150140000000     0.406280000000    -0.0844252  
C112     C      0.016720000000     0.168280000000     0.428160000000     0.0703345  
C113     C      0.493800000000     0.201250000000     0.400800000000     0.0687329  
C114     C      0.494600000000     0.183530000000     0.378110000000    -0.0830098  
C115     C      0.518940000000     0.379750000000     0.335830000000    -0.0844274  
C116     C      0.008570000000     0.383340000000     0.362360000000     0.0328506  
C117     C      0.998840000000     0.409060000000     0.370130000000    -0.0827852  
C118     C      0.000540000000     0.430880000000     0.351870000000     0.0674143  
C119     C      0.520720000000     0.402220000000     0.318100000000     0.0687203  
C120     C      0.510270000000     0.361430000000     0.383100000000     0.0345109  
C121     C      0.495100000000     0.337210000000     0.380680000000    -0.0843698  
C122     C      0.495010000000     0.318440000000     0.402460000000     0.0689664  
C123     C      0.026010000000     0.346460000000     0.427580000000     0.0700478  
C124     C      0.026240000000     0.365650000000     0.406550000000    -0.0857595  
C125     C      0.494010000000     0.396720000000     0.159770000000    -0.0845096  
C126     C      0.016210000000     0.378380000000     0.159110000000     0.0336105  
C127     C      0.035790000000     0.379580000000     0.180350000000    -0.0830007  
C128     C      0.034020000000     0.400200000000     0.200240000000     0.0691799  
C129     C      0.493080000000     0.417140000000     0.179620000000     0.0707042  
C130     C      0.019620000000     0.359600000000     0.135310000000     0.0350905  
C131     C      0.529340000000     0.332830000000     0.138530000000    -0.0838669  
C132     C      0.532060000000     0.315800000000     0.115560000000     0.0698029  
C133     C      0.016230000000     0.351240000000     0.086380000000     0.0709258  
C134     C      0.013360000000     0.368720000000     0.108750000000    -0.0847329  
C135     C      0.517620000000     0.098700000000     0.144340000000    -0.085891   
C136     C      0.510210000000     0.125350000000     0.151490000000     0.0348538  
C137     C      0.000200000000     0.130410000000     0.177960000000    -0.0873584  
C138     C      0.996810000000     0.108650000000     0.196310000000     0.0723194  
C139     C      0.514210000000     0.077600000000     0.163130000000     0.0710387  
C140     C      0.011280000000     0.147070000000     0.130460000000     0.0329365  
C141     C      0.999410000000     0.142270000000     0.104790000000    -0.0833053  
C142     C      0.001860000000     0.161630000000     0.084120000000     0.0688721  
C143     C      0.527090000000     0.190970000000     0.113730000000     0.070138   
C144     C      0.524770000000     0.171940000000     0.135140000000    -0.0843896  
C145     C      0.499290000000     0.060930000000     0.706430000000     0.401951   
C146     C      0.072410000000     0.499200000000     0.806830000000     0.398565   
C147     C      0.501350000000     0.069420000000     0.806250000000     0.399243   
C148     C      0.063520000000     0.491930000000     0.705520000000     0.400441   
C149     C      0.014860000000     0.442780000000     0.714860000000     0.392526   
C150     C      0.451920000000     0.015410000000     0.809750000000     0.396078   
C151     C      0.444770000000     0.011370000000     0.715190000000     0.392602   
C152     C      0.016170000000     0.450150000000     0.809830000000     0.394948   
C153     C      0.019270000000     0.203470000000     0.566810000000     0.401835   
C154     C      0.457870000000     0.310260000000     0.001750000000     0.401767   
C155     C      0.027210000000     0.307870000000     0.567330000000     0.401526   
C156     C      0.450390000000     0.211060000000     0.997730000000     0.400368   
C157     C      0.502690000000     0.209980000000     0.948500000000     0.395053   
C158     C      0.078290000000     0.296330000000     0.515510000000     0.394209   
C159     C      0.069420000000     0.205760000000     0.516280000000     0.395945   
C160     C      0.507540000000     0.306710000000     0.948590000000     0.396496   
C161     C      0.312970000000     0.448800000000     0.516800000000     0.39658    
C162     C      0.217080000000     0.011050000000     0.943740000000     0.394918   
C163     C      0.216450000000     0.440350000000     0.512410000000     0.393542   
C164     C      0.306520000000     0.012440000000     0.948600000000     0.393647   
C165     C      0.312060000000     0.065470000000     0.994780000000     0.402271   
C166     C      0.205190000000     0.487910000000     0.560840000000     0.40254    
C167     C      0.308200000000     0.498500000000     0.569250000000     0.398377   
C168     C      0.207130000000     0.060160000000     0.000290000000     0.402102   
C169     C      0.418430000000     0.370900000000     0.521320000000    -0.0857061  
C170     C      0.391980000000     0.364220000000     0.011870000000     0.0352619  
C171     C      0.387500000000     0.338410000000     0.000460000000    -0.0861014  
C172     C      0.409720000000     0.320330000000     0.997540000000     0.0714648  
C173     C      0.440010000000     0.352320000000     0.518400000000     0.0709764  
C174     C      0.370080000000     0.385230000000     0.511880000000     0.0346549  
C175     C      0.344110000000     0.380630000000     0.523750000000    -0.0843676  
C176     C      0.324790000000     0.401970000000     0.524910000000     0.0690094  
C177     C      0.355960000000     0.431250000000     0.001480000000     0.0700526  
C178     C      0.375670000000     0.410690000000     0.000300000000    -0.0864313  
C179     C      0.338100000000     0.135620000000     0.486870000000    -0.0838027  
C180     C      0.365170000000     0.132800000000     0.996820000000     0.0354995  
C181     C      0.374050000000     0.106820000000     0.005010000000    -0.0853152  
C182     C      0.356010000000     0.084780000000     0.004180000000     0.0712801  
C183     C      0.320540000000     0.112840000000     0.485960000000     0.0701655  
C184     C      0.384550000000     0.156340000000     0.998820000000     0.0353626  
C185     C      0.385840000000     0.176680000000     0.478530000000    -0.0833289  
C186     C      0.407090000000     0.196180000000     0.479280000000     0.0703542  
C187     C      0.424700000000     0.176600000000     0.020220000000     0.0716908  
C188     C      0.403520000000     0.157460000000     0.020510000000    -0.0854416  
C189     C      0.143900000000     0.329970000000     0.532180000000    -0.0822784  
C190     C      0.147820000000     0.346140000000     0.508630000000     0.0343393  
C191     C      0.130500000000     0.341340000000     0.986020000000    -0.08357    
C192     C      0.108090000000     0.323640000000     0.988370000000     0.0711649  
C193     C      0.121720000000     0.311480000000     0.533430000000     0.0694327  
C194     C      0.167610000000     0.369700000000     0.508260000000     0.0342772  
C195     C      0.160920000000     0.393350000000     0.493430000000    -0.0837223  
C196     C      0.178110000000     0.416100000000     0.494220000000     0.0700619  
C197     C      0.209000000000     0.393300000000     0.524160000000     0.0685684  
C198     C      0.192300000000     0.369800000000     0.523510000000    -0.0826063  
C199     C      0.108290000000     0.145260000000     0.995680000000    -0.0852592  
C200     C      0.132340000000     0.147840000000     0.511270000000     0.0346671  
C201     C      0.136180000000     0.171480000000     0.527030000000    -0.0839177  
C202     C      0.115260000000     0.191310000000     0.528000000000     0.0692574  
C203     C      0.088170000000     0.165460000000     0.996790000000     0.0710825  
C204     C      0.152750000000     0.125400000000     0.011050000000     0.0348469  
C205     C      0.144110000000     0.098550000000     0.015850000000    -0.0853462  
C206     C      0.162740000000     0.077040000000     0.012850000000     0.0706461  
C207     C      0.198380000000     0.108110000000     0.500810000000     0.0702171  
C208     C      0.180340000000     0.130180000000     0.504060000000    -0.0848808  
C209     C      0.380410000000     0.017300000000     0.835370000000    -0.082894   
C210     C      0.383820000000     0.007270000000     0.862160000000     0.0338863  
C211     C      0.410420000000     0.499350000000     0.870380000000    -0.0840733  
C212     C      0.432610000000     0.501570000000     0.852350000000     0.0704466  
C213     C      0.403300000000     0.019680000000     0.817880000000     0.068841   
C214     C      0.360450000000     0.006140000000     0.882160000000     0.0344717  
C215     C      0.339590000000     0.026090000000     0.882340000000    -0.0828636  
C216     C      0.320370000000     0.026860000000     0.903850000000     0.0699633  
C217     C      0.341180000000     0.488090000000     0.924330000000     0.070795   
C218     C      0.360070000000     0.486210000000     0.902830000000    -0.0843456  
C219     C      0.141870000000     0.485410000000     0.834080000000    -0.0846567  
C220     C      0.144140000000     0.505760000000     0.854140000000     0.0345509  
C221     C      0.122740000000     0.024710000000     0.856880000000    -0.0846656  
C222     C      0.099090000000     0.022360000000     0.840640000000     0.0702569  
C223     C      0.118190000000     0.484130000000     0.817530000000     0.0697522  
C224     C      0.166890000000     0.005540000000     0.874450000000     0.0339192  
C225     C      0.169430000000     0.483480000000     0.892420000000    -0.084548   
C226     C      0.187220000000     0.485300000000     0.914890000000     0.0700532  
C227     C      0.202160000000     0.029200000000     0.900660000000     0.0694692  
C228     C      0.183850000000     0.028390000000     0.878340000000    -0.0843194  
C229     C      0.128770000000     0.475890000000     0.670810000000    -0.0838447  
C230     C      0.126510000000     0.491780000000     0.646940000000     0.0351807  
C231     C      0.103460000000     0.008950000000     0.644210000000    -0.0851901  
C232     C      0.082780000000     0.008840000000     0.664070000000     0.0714284  
C233     C      0.107960000000     0.476860000000     0.690720000000     0.0710621  
C234     C      0.147420000000     0.490030000000     0.624550000000     0.0353818  
C235     C      0.175450000000     0.485050000000     0.630090000000    -0.0838531  
C236     C      0.194520000000     0.483810000000     0.608520000000     0.0708873  
C237     C      0.158920000000     0.492630000000     0.576260000000     0.0723858  
C238     C      0.139310000000     0.493320000000     0.597120000000    -0.0848659  
C239     C      0.359590000000     0.024570000000     0.618130000000    -0.0841041  
C240     C      0.356530000000     0.506340000000     0.639980000000     0.0342152  
C241     C      0.335950000000     0.486330000000     0.638400000000    -0.0845319  
C242     C      0.319180000000     0.484640000000     0.615020000000     0.0695461  
C243     C      0.343010000000     0.021860000000     0.594770000000     0.0696025  
C244     C      0.376890000000     0.006340000000     0.662680000000     0.033787   
C245     C      0.380010000000     0.028910000000     0.680080000000    -0.0841128  
C246     C      0.401820000000     0.029540000000     0.699070000000     0.0689246  
C247     C      0.417160000000     0.486130000000     0.683800000000     0.0701235  
C248     C      0.395200000000     0.484470000000     0.665310000000    -0.0847788  
C249     C      0.028530000000     0.118330000000     0.855880000000    -0.0846065  
C250     C      0.506870000000     0.137260000000     0.857780000000     0.0347262  
C251     C      0.484800000000     0.134860000000     0.839170000000    -0.0829263  
C252     C      0.483950000000     0.112830000000     0.820740000000     0.0701677  
C253     C      0.026540000000     0.096240000000     0.838050000000     0.0714684  
C254     C      0.506490000000     0.157480000000     0.880730000000     0.0345244  
C255     C      0.017520000000     0.150140000000     0.906280000000    -0.0844434  
C256     C      0.016720000000     0.168280000000     0.928160000000     0.0703736  
C257     C      0.493800000000     0.201250000000     0.900800000000     0.0687369  
C258     C      0.494600000000     0.183530000000     0.878110000000    -0.0829859  
C259     C      0.518940000000     0.379750000000     0.835830000000    -0.0844314  
C260     C      0.008570000000     0.383340000000     0.862360000000     0.0328454  
C261     C      0.998840000000     0.409060000000     0.870130000000    -0.0827783  
C262     C      0.000540000000     0.430880000000     0.851870000000     0.0674234  
C263     C      0.520720000000     0.402220000000     0.818100000000     0.068735   
C264     C      0.510270000000     0.361430000000     0.883100000000     0.03452    
C265     C      0.495100000000     0.337210000000     0.880680000000    -0.0843636  
C266     C      0.495010000000     0.318440000000     0.902460000000     0.0689854  
C267     C      0.026010000000     0.346460000000     0.927580000000     0.0701066  
C268     C      0.026240000000     0.365650000000     0.906550000000    -0.085823   
C269     C      0.494010000000     0.396720000000     0.659770000000    -0.0845028  
C270     C      0.016210000000     0.378380000000     0.659110000000     0.0335917  
C271     C      0.035790000000     0.379580000000     0.680350000000    -0.0829452  
C272     C      0.034020000000     0.400200000000     0.700250000000     0.0691264  
C273     C      0.493080000000     0.417140000000     0.679620000000     0.0707021  
C274     C      0.019620000000     0.359600000000     0.635310000000     0.0351009  
C275     C      0.529340000000     0.332830000000     0.638530000000    -0.0838882  
C276     C      0.532060000000     0.315800000000     0.615560000000     0.0698164  
C277     C      0.016230000000     0.351240000000     0.586380000000     0.0709369  
C278     C      0.013360000000     0.368720000000     0.608750000000    -0.0847303  
C279     C      0.517620000000     0.098700000000     0.644340000000    -0.0858876  
C280     C      0.510200000000     0.125350000000     0.651490000000     0.0348638  
C281     C      0.000200000000     0.130410000000     0.677960000000    -0.0873465  
C282     C      0.996800000000     0.108650000000     0.696310000000     0.0723125  
C283     C      0.514210000000     0.077600000000     0.663130000000     0.0710412  
C284     C      0.011270000000     0.147070000000     0.630450000000     0.0329359  
C285     C      0.999410000000     0.142270000000     0.604780000000    -0.0832981  
C286     C      0.001860000000     0.161630000000     0.584120000000     0.0689141  
C287     C      0.527090000000     0.190960000000     0.613730000000     0.0701574  
C288     C      0.524770000000     0.171940000000     0.635140000000    -0.0844563  
C289     C      0.499290000000     0.560930000000     0.206430000000     0.402022   
C290     C      0.072410000000     0.999200000000     0.306830000000     0.399245   
C291     C      0.501340000000     0.569420000000     0.306250000000     0.399308   
C292     C      0.063520000000     0.991930000000     0.205520000000     0.400975   
C293     C      0.014860000000     0.942780000000     0.214860000000     0.392521   
C294     C      0.451910000000     0.515410000000     0.309750000000     0.39574    
C295     C      0.444770000000     0.511370000000     0.215190000000     0.393185   
C296     C      0.016170000000     0.950150000000     0.309830000000     0.395047   
C297     C      0.019280000000     0.703470000000     0.066810000000     0.401609   
C298     C      0.457880000000     0.810260000000     0.501750000000     0.402081   
C299     C      0.027210000000     0.807870000000     0.067330000000     0.401522   
C300     C      0.450390000000     0.711060000000     0.497720000000     0.399726   
C301     C      0.502690000000     0.709980000000     0.448500000000     0.395068   
C302     C      0.078290000000     0.796330000000     0.015510000000     0.394196   
C303     C      0.069420000000     0.705760000000     0.016280000000     0.395811   
C304     C      0.507540000000     0.806710000000     0.448590000000     0.396305   
C305     C      0.312970000000     0.948800000000     0.016800000000     0.396484   
C306     C      0.217080000000     0.511050000000     0.443730000000     0.395374   
C307     C      0.216450000000     0.940350000000     0.012410000000     0.392918   
C308     C      0.306510000000     0.512440000000     0.448590000000     0.393815   
C309     C      0.312060000000     0.565470000000     0.494780000000     0.401596   
C310     C      0.205190000000     0.987920000000     0.060840000000     0.402752   
C311     C      0.308200000000     0.998500000000     0.069250000000     0.399149   
C312     C      0.207130000000     0.560170000000     0.500290000000     0.402549   
C313     C      0.418430000000     0.870890000000     0.021330000000    -0.086033   
C314     C      0.391980000000     0.864220000000     0.511860000000     0.0348223  
C315     C      0.387500000000     0.838410000000     0.500460000000    -0.0845613  
C316     C      0.409720000000     0.820330000000     0.497540000000     0.0700905  
C317     C      0.440010000000     0.852320000000     0.018400000000     0.0711232  
C318     C      0.370080000000     0.885230000000     0.011880000000     0.0344822  
C319     C      0.344110000000     0.880640000000     0.023760000000    -0.0843253  
C320     C      0.324790000000     0.901970000000     0.024910000000     0.0690219  
C321     C      0.355960000000     0.931260000000     0.501470000000     0.0704128  
C322     C      0.375670000000     0.910690000000     0.500300000000    -0.0858849  
C323     C      0.338110000000     0.635620000000     0.986870000000    -0.0838333  
C324     C      0.365170000000     0.632800000000     0.496820000000     0.0350532  
C325     C      0.374050000000     0.606820000000     0.505000000000    -0.0847662  
C326     C      0.356010000000     0.584770000000     0.504180000000     0.0715401  
C327     C      0.320540000000     0.612840000000     0.985950000000     0.070237   
C328     C      0.384550000000     0.656340000000     0.498820000000     0.0349585  
C329     C      0.385840000000     0.676680000000     0.978530000000    -0.0833709  
C330     C      0.407090000000     0.696190000000     0.979280000000     0.0705107  
C331     C      0.424700000000     0.676590000000     0.520210000000     0.0720861  
C332     C      0.403520000000     0.657460000000     0.520510000000    -0.0851087  
C333     C      0.143900000000     0.829980000000     0.032180000000    -0.0822489  
C334     C      0.147820000000     0.846140000000     0.008630000000     0.0339629  
C335     C      0.130500000000     0.841340000000     0.486020000000    -0.0841328  
C336     C      0.108090000000     0.823640000000     0.488370000000     0.0708641  
C337     C      0.121710000000     0.811480000000     0.033430000000     0.0693514  
C338     C      0.167610000000     0.869700000000     0.008260000000     0.0338102  
C339     C      0.160920000000     0.893350000000     0.993420000000    -0.0832371  
C340     C      0.178110000000     0.916100000000     0.994220000000     0.0703513  
C341     C      0.209000000000     0.893300000000     0.024160000000     0.0684216  
C342     C      0.192300000000     0.869800000000     0.023510000000    -0.0824818  
C343     C      0.108300000000     0.645260000000     0.495680000000    -0.085832   
C344     C      0.132340000000     0.647840000000     0.011270000000     0.0341293  
C345     C      0.136180000000     0.671480000000     0.027030000000    -0.0838052  
C346     C      0.115260000000     0.691310000000     0.028000000000     0.0690973  
C347     C      0.088180000000     0.665460000000     0.496790000000     0.0707336  
C348     C      0.152760000000     0.625400000000     0.511060000000     0.0348978  
C349     C      0.144110000000     0.598550000000     0.515850000000    -0.0852962  
C350     C      0.162740000000     0.577040000000     0.512850000000     0.0707288  
C351     C      0.198380000000     0.608110000000     0.000820000000     0.069575   
C352     C      0.180340000000     0.630180000000     0.004060000000    -0.0847525  
C353     C      0.380400000000     0.517300000000     0.335370000000    -0.0831516  
C354     C      0.383820000000     0.507260000000     0.362160000000     0.0346374  
C355     C      0.410430000000     0.999350000000     0.370390000000    -0.0826972  
C356     C      0.432610000000     0.001570000000     0.352350000000     0.0690729  
C357     C      0.403300000000     0.519670000000     0.317870000000     0.0689801  
C358     C      0.360440000000     0.506130000000     0.382160000000     0.0348107  
C359     C      0.339580000000     0.526080000000     0.382340000000    -0.0829113  
C360     C      0.320370000000     0.526860000000     0.403850000000     0.0700082  
C361     C      0.341190000000     0.988090000000     0.424330000000     0.070998   
C362     C      0.360070000000     0.986210000000     0.402840000000    -0.0839141  
C363     C      0.141870000000     0.985410000000     0.334080000000    -0.0841689  
C364     C      0.144140000000     0.005760000000     0.354140000000     0.0341345  
C365     C      0.122740000000     0.524710000000     0.356890000000    -0.0847588  
C366     C      0.099090000000     0.522360000000     0.340640000000     0.0703541  
C367     C      0.118190000000     0.984130000000     0.317530000000     0.0700283  
C368     C      0.166890000000     0.505540000000     0.374450000000     0.0343613  
C369     C      0.169430000000     0.983480000000     0.392420000000    -0.0841164  
C370     C      0.187220000000     0.985300000000     0.414890000000     0.070353   
C371     C      0.202160000000     0.529200000000     0.400650000000     0.069567   
C372     C      0.183850000000     0.528390000000     0.378340000000    -0.0844321  
C373     C      0.128770000000     0.975890000000     0.170810000000    -0.0839913  
C374     C      0.126510000000     0.991780000000     0.146940000000     0.0357269  
C375     C      0.103460000000     0.508940000000     0.144200000000    -0.0846438  
C376     C      0.082780000000     0.508840000000     0.164070000000     0.0716927  
C377     C      0.107960000000     0.976860000000     0.190720000000     0.0712238  
C378     C      0.147420000000     0.990030000000     0.124550000000     0.0352852  
C379     C      0.175450000000     0.985060000000     0.130090000000    -0.0837546  
C380     C      0.194520000000     0.983810000000     0.108520000000     0.0709092  
C381     C      0.158920000000     0.992630000000     0.076260000000     0.0723711  
C382     C      0.139320000000     0.993320000000     0.097130000000    -0.0846857  
C383     C      0.359590000000     0.524570000000     0.118130000000    -0.0841579  
C384     C      0.356520000000     0.006340000000     0.139990000000     0.0338339  
C385     C      0.335950000000     0.986320000000     0.138400000000    -0.0841995  
C386     C      0.319180000000     0.984640000000     0.115020000000     0.0699513  
C387     C      0.343020000000     0.521860000000     0.094770000000     0.0696532  
C388     C      0.376890000000     0.506340000000     0.162680000000     0.0342453  
C389     C      0.380000000000     0.528910000000     0.180080000000    -0.0842023  
C390     C      0.401820000000     0.529540000000     0.199080000000     0.0690212  
C391     C      0.417160000000     0.986120000000     0.183800000000     0.0702902  
C392     C      0.395200000000     0.984470000000     0.165310000000    -0.0842322  
C393     C      0.028530000000     0.618330000000     0.355880000000    -0.0845976  
C394     C      0.506870000000     0.637260000000     0.357780000000     0.0347228  
C395     C      0.484800000000     0.634860000000     0.339170000000    -0.0829216  
C396     C      0.483950000000     0.612830000000     0.320740000000     0.0701567  
C397     C      0.026540000000     0.596240000000     0.338050000000     0.0714565  
C398     C      0.506500000000     0.657480000000     0.380730000000     0.034518   
C399     C      0.017520000000     0.650140000000     0.406280000000    -0.0844605  
C400     C      0.016720000000     0.668280000000     0.428160000000     0.0703544  
C401     C      0.493800000000     0.701250000000     0.400800000000     0.0687315  
C402     C      0.494600000000     0.683530000000     0.378110000000    -0.0830089  
C403     C      0.518940000000     0.879750000000     0.335830000000    -0.0844052  
C404     C      0.008570000000     0.883350000000     0.362360000000     0.0329343  
C405     C      0.998850000000     0.909070000000     0.370140000000    -0.0828821  
C406     C      0.000550000000     0.930890000000     0.351870000000     0.0675269  
C407     C      0.520720000000     0.902220000000     0.318100000000     0.0687202  
C408     C      0.510270000000     0.861430000000     0.383100000000     0.0345083  
C409     C      0.495100000000     0.837210000000     0.380680000000    -0.0844251  
C410     C      0.495010000000     0.818440000000     0.402460000000     0.0689821  
C411     C      0.026010000000     0.846460000000     0.427580000000     0.0700422  
C412     C      0.026240000000     0.865650000000     0.406550000000    -0.0857276  
C413     C      0.494010000000     0.896720000000     0.159770000000    -0.0844907  
C414     C      0.016210000000     0.878380000000     0.159110000000     0.0336194  
C415     C      0.035790000000     0.879580000000     0.180350000000    -0.0829483  
C416     C      0.034020000000     0.900200000000     0.200250000000     0.0691317  
C417     C      0.493080000000     0.917140000000     0.179620000000     0.0707209  
C418     C      0.019620000000     0.859600000000     0.135310000000     0.0350916  
C419     C      0.529340000000     0.832830000000     0.138530000000    -0.0838687  
C420     C      0.532060000000     0.815800000000     0.115560000000     0.0697969  
C421     C      0.016230000000     0.851240000000     0.086380000000     0.0709299  
C422     C      0.013360000000     0.868720000000     0.108750000000    -0.0847308  
C423     C      0.517620000000     0.598700000000     0.144340000000    -0.0858837  
C424     C      0.510210000000     0.625350000000     0.151490000000     0.0348599  
C425     C      0.000200000000     0.630410000000     0.177960000000    -0.0873606  
C426     C      0.996810000000     0.608650000000     0.196310000000     0.0723303  
C427     C      0.514210000000     0.577600000000     0.163130000000     0.0710574  
C428     C      0.011280000000     0.647070000000     0.130460000000     0.0329395  
C429     C      0.999410000000     0.642270000000     0.104790000000    -0.0833139  
C430     C      0.001860000000     0.661640000000     0.084120000000     0.0689311  
C431     C      0.527090000000     0.690970000000     0.113730000000     0.0701454  
C432     C      0.524770000000     0.671940000000     0.135140000000    -0.0843917  
C433     C      0.499290000000     0.560930000000     0.706430000000     0.40202    
C434     C      0.072410000000     0.999200000000     0.806830000000     0.399242   
C435     C      0.501340000000     0.569420000000     0.806250000000     0.399391   
C436     C      0.063520000000     0.991930000000     0.705520000000     0.401065   
C437     C      0.014860000000     0.942780000000     0.714860000000     0.392521   
C438     C      0.451910000000     0.515410000000     0.809750000000     0.395746   
C439     C      0.444770000000     0.511370000000     0.715190000000     0.392984   
C440     C      0.016170000000     0.950150000000     0.809830000000     0.394936   
C441     C      0.019280000000     0.703470000000     0.566810000000     0.401634   
C442     C      0.457870000000     0.810260000000     0.001750000000     0.401769   
C443     C      0.027210000000     0.807870000000     0.567330000000     0.401548   
C444     C      0.450390000000     0.711060000000     0.997730000000     0.400379   
C445     C      0.502690000000     0.709980000000     0.948500000000     0.394768   
C446     C      0.078290000000     0.796330000000     0.515510000000     0.394232   
C447     C      0.069420000000     0.705760000000     0.516280000000     0.396138   
C448     C      0.507540000000     0.806710000000     0.948590000000     0.396302   
C449     C      0.312970000000     0.948800000000     0.516800000000     0.39653    
C450     C      0.217080000000     0.511050000000     0.943730000000     0.395387   
C451     C      0.216450000000     0.940350000000     0.512410000000     0.393673   
C452     C      0.306510000000     0.512440000000     0.948590000000     0.393697   
C453     C      0.312060000000     0.565470000000     0.994780000000     0.40218    
C454     C      0.205190000000     0.987910000000     0.560850000000     0.402666   
C455     C      0.308200000000     0.998500000000     0.569250000000     0.399176   
C456     C      0.207130000000     0.560170000000     0.000290000000     0.402053   
C457     C      0.418430000000     0.870890000000     0.521320000000    -0.0856827  
C458     C      0.391980000000     0.864220000000     0.011870000000     0.0352864  
C459     C      0.387500000000     0.838410000000     0.000460000000    -0.0860844  
C460     C      0.409720000000     0.820330000000     0.997540000000     0.0714571  
C461     C      0.440010000000     0.852320000000     0.518400000000     0.0710576  
C462     C      0.370080000000     0.885230000000     0.511880000000     0.0346307  
C463     C      0.344110000000     0.880640000000     0.523750000000    -0.0843331  
C464     C      0.324790000000     0.901970000000     0.524910000000     0.0690326  
C465     C      0.355960000000     0.931260000000     0.001480000000     0.0699678  
C466     C      0.375670000000     0.910690000000     0.000300000000    -0.0862559  
C467     C      0.338110000000     0.635620000000     0.486870000000    -0.0837496  
C468     C      0.365170000000     0.632800000000     0.996820000000     0.0355207  
C469     C      0.374050000000     0.606820000000     0.005000000000    -0.0853298  
C470     C      0.356010000000     0.584780000000     0.004180000000     0.0713327  
C471     C      0.320540000000     0.612840000000     0.485950000000     0.0700796  
C472     C      0.384550000000     0.656340000000     0.998820000000     0.0354018  
C473     C      0.385840000000     0.676680000000     0.478530000000    -0.0832687  
C474     C      0.407090000000     0.696190000000     0.479280000000     0.070293   
C475     C      0.424700000000     0.676600000000     0.020210000000     0.0718229  
C476     C      0.403520000000     0.657460000000     0.020510000000    -0.0855711  
C477     C      0.143900000000     0.829970000000     0.532180000000    -0.0822909  
C478     C      0.147820000000     0.846140000000     0.508630000000     0.0343656  
C479     C      0.130500000000     0.841340000000     0.986020000000    -0.0836041  
C480     C      0.108090000000     0.823640000000     0.988370000000     0.0711794  
C481     C      0.121720000000     0.811480000000     0.533430000000     0.0694407  
C482     C      0.167610000000     0.869700000000     0.508260000000     0.0342851  
C483     C      0.160920000000     0.893350000000     0.493430000000    -0.0837599  
C484     C      0.178110000000     0.916100000000     0.494230000000     0.0701467  
C485     C      0.209000000000     0.893300000000     0.524160000000     0.0685901  
C486     C      0.192300000000     0.869800000000     0.523510000000    -0.0826212  
C487     C      0.108290000000     0.645260000000     0.995680000000    -0.085243   
C488     C      0.132340000000     0.647840000000     0.511270000000     0.0346899  
C489     C      0.136180000000     0.671480000000     0.527030000000    -0.0839308  
C490     C      0.115260000000     0.691310000000     0.528000000000     0.0692654  
C491     C      0.088170000000     0.665460000000     0.996790000000     0.0710689  
C492     C      0.152760000000     0.625400000000     0.011050000000     0.0349085  
C493     C      0.144110000000     0.598550000000     0.015850000000    -0.0853636  
C494     C      0.162740000000     0.577040000000     0.012850000000     0.0707019  
C495     C      0.198380000000     0.608110000000     0.500820000000     0.0703287  
C496     C      0.180340000000     0.630180000000     0.504060000000    -0.0849239  
C497     C      0.380400000000     0.517300000000     0.835370000000    -0.0831575  
C498     C      0.383820000000     0.507260000000     0.862160000000     0.0346582  
C499     C      0.410430000000     0.999350000000     0.870390000000    -0.082694   
C500     C      0.432610000000     0.001570000000     0.852350000000     0.0690822  
C501     C      0.403300000000     0.519670000000     0.817870000000     0.0689853  
C502     C      0.360440000000     0.506130000000     0.882150000000     0.0347761  
C503     C      0.339580000000     0.526080000000     0.882340000000    -0.0828987  
C504     C      0.320370000000     0.526860000000     0.903850000000     0.0700674  
C505     C      0.341190000000     0.988090000000     0.924330000000     0.0710214  
C506     C      0.360070000000     0.986210000000     0.902840000000    -0.0838964  
C507     C      0.141870000000     0.985410000000     0.834080000000    -0.0841586  
C508     C      0.144140000000     0.005760000000     0.854140000000     0.0341209  
C509     C      0.122740000000     0.524710000000     0.856890000000    -0.0847608  
C510     C      0.099090000000     0.522360000000     0.840640000000     0.0703645  
C511     C      0.118190000000     0.984130000000     0.817530000000     0.0700286  
C512     C      0.166890000000     0.505540000000     0.874450000000     0.0343388  
C513     C      0.169430000000     0.983480000000     0.892420000000    -0.0840737  
C514     C      0.187220000000     0.985300000000     0.914890000000     0.0702941  
C515     C      0.202160000000     0.529200000000     0.900650000000     0.0696125  
C516     C      0.183850000000     0.528400000000     0.878340000000    -0.0844719  
C517     C      0.128770000000     0.975890000000     0.670810000000    -0.0840514  
C518     C      0.126510000000     0.991780000000     0.646950000000     0.0357799  
C519     C      0.103460000000     0.508940000000     0.644210000000    -0.0845889  
C520     C      0.082780000000     0.508840000000     0.664070000000     0.0716939  
C521     C      0.107960000000     0.976860000000     0.690720000000     0.0712795  
C522     C      0.147420000000     0.990030000000     0.624550000000     0.0352545  
C523     C      0.175460000000     0.985050000000     0.630090000000    -0.0837667  
C524     C      0.194520000000     0.983810000000     0.608520000000     0.0709443  
C525     C      0.158920000000     0.992630000000     0.576260000000     0.072402   
C526     C      0.139320000000     0.993320000000     0.597130000000    -0.0846712  
C527     C      0.359590000000     0.524570000000     0.618130000000    -0.0841534  
C528     C      0.356520000000     0.006340000000     0.639990000000     0.0338283  
C529     C      0.335950000000     0.986320000000     0.638400000000    -0.0841947  
C530     C      0.319180000000     0.984640000000     0.615020000000     0.0699485  
C531     C      0.343020000000     0.521860000000     0.594770000000     0.0696645  
C532     C      0.376890000000     0.506340000000     0.662680000000     0.0342204  
C533     C      0.380010000000     0.528910000000     0.680080000000    -0.0841649  
C534     C      0.401820000000     0.529540000000     0.699080000000     0.0690234  
C535     C      0.417160000000     0.986120000000     0.683800000000     0.0702943  
C536     C      0.395200000000     0.984470000000     0.665310000000    -0.0842413  
C537     C      0.028530000000     0.618330000000     0.855880000000    -0.0845957  
C538     C      0.506870000000     0.637250000000     0.857780000000     0.0347644  
C539     C      0.484800000000     0.634860000000     0.839170000000    -0.0829262  
C540     C      0.483950000000     0.612830000000     0.820740000000     0.0701248  
C541     C      0.026540000000     0.596240000000     0.838050000000     0.0714615  
C542     C      0.506490000000     0.657480000000     0.880740000000     0.0345762  
C543     C      0.017510000000     0.650140000000     0.906280000000    -0.0844278  
C544     C      0.016720000000     0.668280000000     0.928160000000     0.0703848  
C545     C      0.493800000000     0.701250000000     0.900800000000     0.068698   
C546     C      0.494600000000     0.683530000000     0.878110000000    -0.0830174  
C547     C      0.518940000000     0.879750000000     0.835830000000    -0.0844133  
C548     C      0.008570000000     0.883350000000     0.862360000000     0.0329658  
C549     C      0.998840000000     0.909060000000     0.870140000000    -0.0828358  
C550     C      0.000540000000     0.930890000000     0.851870000000     0.0674159  
C551     C      0.520720000000     0.902220000000     0.818100000000     0.0687291  
C552     C      0.510270000000     0.861430000000     0.883100000000     0.0345334  
C553     C      0.495100000000     0.837210000000     0.880680000000    -0.0844263  
C554     C      0.495010000000     0.818440000000     0.902460000000     0.0690022  
C555     C      0.026010000000     0.846460000000     0.927580000000     0.0700534  
C556     C      0.026240000000     0.865650000000     0.906550000000    -0.0856994  
C557     C      0.494010000000     0.896720000000     0.659770000000    -0.0844941  
C558     C      0.016210000000     0.878380000000     0.659110000000     0.0336249  
C559     C      0.035790000000     0.879580000000     0.680350000000    -0.082955   
C560     C      0.034020000000     0.900200000000     0.700250000000     0.0691422  
C561     C      0.493080000000     0.917140000000     0.679620000000     0.0707217  
C562     C      0.019620000000     0.859600000000     0.635310000000     0.0350883  
C563     C      0.529340000000     0.832830000000     0.638530000000    -0.0839097  
C564     C      0.532060000000     0.815800000000     0.615560000000     0.0698766  
C565     C      0.016230000000     0.851240000000     0.586380000000     0.0709315  
C566     C      0.013370000000     0.868720000000     0.608750000000    -0.0846996  
C567     C      0.517620000000     0.598700000000     0.644340000000    -0.0859225  
C568     C      0.510210000000     0.625340000000     0.651490000000     0.0349129  
C569     C      0.000200000000     0.630410000000     0.677960000000    -0.0873456  
C570     C      0.996800000000     0.608650000000     0.696310000000     0.0723209  
C571     C      0.514210000000     0.577600000000     0.663130000000     0.0710694  
C572     C      0.011270000000     0.647070000000     0.630450000000     0.0329435  
C573     C      0.999410000000     0.642270000000     0.604780000000    -0.0833097  
C574     C      0.001860000000     0.661640000000     0.584120000000     0.0689797  
C575     C      0.527090000000     0.690960000000     0.613730000000     0.070226   
C576     C      0.524770000000     0.671940000000     0.635140000000    -0.0844786  
C577     C      0.999290000000     0.060940000000     0.206430000000     0.403395   
C578     C      0.572410000000     0.499200000000     0.306830000000     0.398385   
C579     C      0.001350000000     0.069430000000     0.306250000000     0.398262   
C580     C      0.563520000000     0.491930000000     0.205510000000     0.400572   
C581     C      0.514860000000     0.442770000000     0.214860000000     0.393428   
C582     C      0.951920000000     0.015410000000     0.309750000000     0.396083   
C583     C      0.944770000000     0.011370000000     0.215190000000     0.392624   
C584     C      0.516170000000     0.450150000000     0.309830000000     0.395145   
C585     C      0.519280000000     0.203460000000     0.066810000000     0.401854   
C586     C      0.957870000000     0.310260000000     0.501750000000     0.402089   
C587     C      0.527210000000     0.307870000000     0.067330000000     0.401317   
C588     C      0.950400000000     0.211060000000     0.497720000000     0.39986    
C589     C      0.002700000000     0.209990000000     0.448490000000     0.39385    
C590     C      0.578290000000     0.296330000000     0.015510000000     0.394203   
C591     C      0.569420000000     0.205760000000     0.016280000000     0.395853   
C592     C      0.007540000000     0.306710000000     0.448590000000     0.395595   
C593     C      0.812970000000     0.448800000000     0.016800000000     0.396478   
C594     C      0.717080000000     0.011050000000     0.443740000000     0.394895   
C595     C      0.716450000000     0.440350000000     0.012410000000     0.39293    
C596     C      0.806520000000     0.012440000000     0.448600000000     0.393723   
C597     C      0.812060000000     0.065470000000     0.494780000000     0.401588   
C598     C      0.705190000000     0.487910000000     0.060840000000     0.402409   
C599     C      0.808200000000     0.498500000000     0.069250000000     0.398177   
C600     C      0.707130000000     0.060160000000     0.500290000000     0.402726   
C601     C      0.918430000000     0.370890000000     0.021330000000    -0.0860644  
C602     C      0.891980000000     0.364220000000     0.511860000000     0.0348302  
C603     C      0.887500000000     0.338410000000     0.500460000000    -0.0846224  
C604     C      0.909720000000     0.320330000000     0.497550000000     0.0702336  
C605     C      0.940010000000     0.352320000000     0.018400000000     0.0711863  
C606     C      0.870080000000     0.385230000000     0.011880000000     0.0345804  
C607     C      0.844110000000     0.380630000000     0.023760000000    -0.0844416  
C608     C      0.824790000000     0.401970000000     0.024910000000     0.0691037  
C609     C      0.855960000000     0.431250000000     0.501470000000     0.0704733  
C610     C      0.875670000000     0.410690000000     0.500300000000    -0.0860338  
C611     C      0.838110000000     0.135620000000     0.986870000000    -0.0837746  
C612     C      0.865180000000     0.132800000000     0.496810000000     0.0350613  
C613     C      0.874060000000     0.106820000000     0.505000000000    -0.0848143  
C614     C      0.856010000000     0.084770000000     0.504180000000     0.0715792  
C615     C      0.820540000000     0.112840000000     0.985950000000     0.0701794  
C616     C      0.884560000000     0.156330000000     0.498820000000     0.0349668  
C617     C      0.885840000000     0.176670000000     0.978530000000    -0.0833501  
C618     C      0.907090000000     0.196180000000     0.979280000000     0.070481   
C619     C      0.924710000000     0.176590000000     0.520210000000     0.0720416  
C620     C      0.903530000000     0.157450000000     0.520500000000    -0.0849827  
C621     C      0.643900000000     0.329970000000     0.032180000000    -0.082251   
C622     C      0.647820000000     0.346140000000     0.008630000000     0.0339421  
C623     C      0.630500000000     0.341340000000     0.486020000000    -0.0841192  
C624     C      0.608090000000     0.323640000000     0.488370000000     0.0708657  
C625     C      0.621710000000     0.311480000000     0.033430000000     0.0693761  
C626     C      0.667610000000     0.369700000000     0.008260000000     0.033819   
C627     C      0.660920000000     0.393350000000     0.993420000000    -0.0832547  
C628     C      0.678110000000     0.416100000000     0.994220000000     0.0703636  
C629     C      0.709000000000     0.393300000000     0.024160000000     0.0684183  
C630     C      0.692300000000     0.369800000000     0.023510000000    -0.0824888  
C631     C      0.608290000000     0.145260000000     0.495680000000    -0.085751   
C632     C      0.632330000000     0.147840000000     0.011270000000     0.0342266  
C633     C      0.636180000000     0.171470000000     0.027030000000    -0.0839013  
C634     C      0.615260000000     0.191300000000     0.027990000000     0.0691894  
C635     C      0.588170000000     0.165460000000     0.496790000000     0.0707626  
C636     C      0.652750000000     0.125400000000     0.511050000000     0.0348433  
C637     C      0.644110000000     0.098550000000     0.515850000000    -0.0852386  
C638     C      0.662740000000     0.077030000000     0.512840000000     0.0706579  
C639     C      0.698380000000     0.108110000000     0.000810000000     0.0695434  
C640     C      0.680340000000     0.130180000000     0.004050000000    -0.0847119  
C641     C      0.880410000000     0.017310000000     0.335370000000    -0.0828827  
C642     C      0.883820000000     0.007270000000     0.362160000000     0.0338807  
C643     C      0.910420000000     0.499350000000     0.370380000000    -0.0840662  
C644     C      0.932610000000     0.501570000000     0.352350000000     0.0704993  
C645     C      0.903300000000     0.019680000000     0.317880000000     0.0688709  
C646     C      0.860450000000     0.006140000000     0.382160000000     0.0344782  
C647     C      0.839590000000     0.026090000000     0.382340000000    -0.0828725  
C648     C      0.820370000000     0.026860000000     0.403850000000     0.0699565  
C649     C      0.841180000000     0.488090000000     0.424330000000     0.0707787  
C650     C      0.860060000000     0.486210000000     0.402830000000    -0.0843066  
C651     C      0.641870000000     0.485410000000     0.334080000000    -0.0846483  
C652     C      0.644140000000     0.505760000000     0.354140000000     0.034542   
C653     C      0.622750000000     0.024710000000     0.356880000000    -0.0847092  
C654     C      0.599100000000     0.022360000000     0.340630000000     0.0703088  
C655     C      0.618190000000     0.484130000000     0.317530000000     0.0697471  
C656     C      0.666890000000     0.005540000000     0.374450000000     0.0338914  
C657     C      0.669430000000     0.483480000000     0.392420000000    -0.0845576  
C658     C      0.687220000000     0.485300000000     0.414890000000     0.0700309  
C659     C      0.702160000000     0.029200000000     0.400660000000     0.0693562  
C660     C      0.683850000000     0.028390000000     0.378340000000    -0.0842843  
C661     C      0.628770000000     0.475890000000     0.170810000000    -0.0838669  
C662     C      0.626500000000     0.491770000000     0.146940000000     0.0352757  
C663     C      0.603460000000     0.008940000000     0.144200000000    -0.0852902  
C664     C      0.582780000000     0.008830000000     0.164070000000     0.071597   
C665     C      0.607960000000     0.476850000000     0.190720000000     0.0710335  
C666     C      0.647410000000     0.490030000000     0.124550000000     0.035269   
C667     C      0.675450000000     0.485050000000     0.130080000000    -0.0837306  
C668     C      0.694520000000     0.483810000000     0.108520000000     0.0708554  
C669     C      0.658920000000     0.492630000000     0.076250000000     0.0722796  
C670     C      0.639310000000     0.493320000000     0.097120000000    -0.0847558  
C671     C      0.859590000000     0.024570000000     0.118130000000    -0.0841225  
C672     C      0.856530000000     0.506340000000     0.139980000000     0.0342372  
C673     C      0.835950000000     0.486330000000     0.138400000000    -0.0845393  
C674     C      0.819180000000     0.484640000000     0.115020000000     0.0695497  
C675     C      0.843020000000     0.021850000000     0.094770000000     0.0696328  
C676     C      0.876890000000     0.006340000000     0.162670000000     0.0337929  
C677     C      0.880010000000     0.028910000000     0.180080000000    -0.0840579  
C678     C      0.901820000000     0.029540000000     0.199080000000     0.0689272  
C679     C      0.917160000000     0.486130000000     0.183800000000     0.0701511  
C680     C      0.895200000000     0.484470000000     0.165300000000    -0.0847667  
C681     C      0.528530000000     0.118320000000     0.355890000000    -0.0846958  
C682     C      0.006880000000     0.137270000000     0.357770000000     0.0340146  
C683     C      0.984810000000     0.134870000000     0.339160000000    -0.0821504  
C684     C      0.983950000000     0.112840000000     0.320740000000     0.0705643  
C685     C      0.526540000000     0.096240000000     0.338060000000     0.0716429  
C686     C      0.006510000000     0.157490000000     0.380720000000     0.033825   
C687     C      0.517510000000     0.150130000000     0.406290000000    -0.0845138  
C688     C      0.516710000000     0.168270000000     0.428170000000     0.0705075  
C689     C      0.993800000000     0.201260000000     0.400800000000     0.0691345  
C690     C      0.994610000000     0.183540000000     0.378100000000    -0.0822179  
C691     C      0.018940000000     0.379750000000     0.335820000000    -0.0838791  
C692     C      0.508580000000     0.383340000000     0.362370000000     0.0342677  
C693     C      0.498850000000     0.409060000000     0.370140000000    -0.0853804  
C694     C      0.500550000000     0.430880000000     0.351870000000     0.0698075  
C695     C      0.020720000000     0.402220000000     0.318090000000     0.0682594  
C696     C      0.010270000000     0.361420000000     0.383090000000     0.0340642  
C697     C      0.995100000000     0.337210000000     0.380680000000    -0.0836359  
C698     C      0.995000000000     0.318440000000     0.402450000000     0.0693298  
C699     C      0.526010000000     0.346460000000     0.427590000000     0.0702413  
C700     C      0.526250000000     0.365650000000     0.406550000000    -0.0858202  
C701     C      0.994010000000     0.396720000000     0.159760000000    -0.0836208  
C702     C      0.516200000000     0.378370000000     0.159120000000     0.0345098  
C703     C      0.535790000000     0.379570000000     0.180350000000    -0.0832166  
C704     C      0.534010000000     0.400190000000     0.200250000000     0.0693981  
C705     C      0.993090000000     0.417150000000     0.179620000000     0.0712077  
C706     C      0.519620000000     0.359590000000     0.135310000000     0.0349271  
C707     C      0.029350000000     0.332840000000     0.138530000000    -0.0840658  
C708     C      0.032060000000     0.315800000000     0.115560000000     0.0698142  
C709     C      0.516230000000     0.351230000000     0.086380000000     0.0710684  
C710     C      0.513360000000     0.368720000000     0.108750000000    -0.0846142  
C711     C      0.017610000000     0.098700000000     0.144340000000    -0.0867871  
C712     C      0.010190000000     0.125350000000     0.151490000000     0.0363334  
C713     C      0.500210000000     0.130400000000     0.177960000000    -0.0844825  
C714     C      0.496810000000     0.108640000000     0.196310000000     0.0700315  
C715     C      0.014200000000     0.077600000000     0.163130000000     0.0714393  
C716     C      0.511290000000     0.147060000000     0.130460000000     0.0350086  
C717     C      0.499420000000     0.142270000000     0.104790000000    -0.0861651  
C718     C      0.501870000000     0.161630000000     0.084130000000     0.0713532  
C719     C      0.027080000000     0.190970000000     0.113730000000     0.0695194  
C720     C      0.024760000000     0.171940000000     0.135140000000    -0.0835441  
C721     C      0.999290000000     0.060940000000     0.706430000000     0.40341    
C722     C      0.572410000000     0.499200000000     0.806830000000     0.398374   
C723     C      0.001350000000     0.069430000000     0.806250000000     0.398262   
C724     C      0.563520000000     0.491930000000     0.705510000000     0.40057    
C725     C      0.514860000000     0.442770000000     0.714860000000     0.39342    
C726     C      0.951920000000     0.015410000000     0.809750000000     0.396084   
C727     C      0.944770000000     0.011370000000     0.715190000000     0.392734   
C728     C      0.516170000000     0.450150000000     0.809830000000     0.395168   
C729     C      0.519280000000     0.203460000000     0.566810000000     0.401904   
C730     C      0.957870000000     0.310260000000     0.001750000000     0.401564   
C731     C      0.527210000000     0.307870000000     0.567330000000     0.401329   
C732     C      0.950400000000     0.211060000000     0.997720000000     0.400414   
C733     C      0.002700000000     0.209990000000     0.948490000000     0.393957   
C734     C      0.578290000000     0.296330000000     0.515510000000     0.394226   
C735     C      0.569420000000     0.205760000000     0.516280000000     0.395873   
C736     C      0.007540000000     0.306710000000     0.948590000000     0.395593   
C737     C      0.812970000000     0.448800000000     0.516800000000     0.396521   
C738     C      0.717080000000     0.011050000000     0.943740000000     0.39492    
C739     C      0.716450000000     0.440350000000     0.512410000000     0.393542   
C740     C      0.806520000000     0.012440000000     0.948600000000     0.393714   
C741     C      0.812060000000     0.065470000000     0.994780000000     0.402163   
C742     C      0.705190000000     0.487910000000     0.560840000000     0.402533   
C743     C      0.808200000000     0.498490000000     0.569250000000     0.398221   
C744     C      0.707130000000     0.060160000000     0.000290000000     0.402119   
C745     C      0.918430000000     0.370890000000     0.521320000000    -0.0856246  
C746     C      0.891980000000     0.364220000000     0.011870000000     0.0353143  
C747     C      0.887500000000     0.338410000000     0.000460000000    -0.0861306  
C748     C      0.909720000000     0.320330000000     0.997550000000     0.0715499  
C749     C      0.940010000000     0.352320000000     0.518400000000     0.0710566  
C750     C      0.870080000000     0.385230000000     0.511880000000     0.0347084  
C751     C      0.844110000000     0.380630000000     0.523760000000    -0.0844414  
C752     C      0.824790000000     0.401970000000     0.524910000000     0.0691153  
C753     C      0.855960000000     0.431250000000     0.001480000000     0.0699779  
C754     C      0.875670000000     0.410680000000     0.000300000000    -0.086369   
C755     C      0.838110000000     0.135620000000     0.486870000000    -0.0837384  
C756     C      0.865180000000     0.132800000000     0.996810000000     0.0354836  
C757     C      0.874060000000     0.106820000000     0.005000000000    -0.0852915  
C758     C      0.856010000000     0.084770000000     0.004180000000     0.0712925  
C759     C      0.820540000000     0.112840000000     0.485960000000     0.0700697  
C760     C      0.884560000000     0.156330000000     0.998820000000     0.0354411  
C761     C      0.885840000000     0.176670000000     0.478530000000    -0.0832553  
C762     C      0.907090000000     0.196180000000     0.479280000000     0.070317   
C763     C      0.924700000000     0.176590000000     0.020210000000     0.0718313  
C764     C      0.903520000000     0.157460000000     0.020510000000    -0.0855294  
C765     C      0.643900000000     0.329970000000     0.532180000000    -0.0822473  
C766     C      0.647820000000     0.346140000000     0.508630000000     0.0343494  
C767     C      0.630500000000     0.341340000000     0.986020000000    -0.0835911  
C768     C      0.608090000000     0.323640000000     0.988370000000     0.0711846  
C769     C      0.621720000000     0.311470000000     0.533430000000     0.0694047  
C770     C      0.667610000000     0.369700000000     0.508260000000     0.0342888  
C771     C      0.660920000000     0.393350000000     0.493430000000    -0.0837645  
C772     C      0.678110000000     0.416100000000     0.494230000000     0.0701373  
C773     C      0.709000000000     0.393300000000     0.524160000000     0.0685809  
C774     C      0.692300000000     0.369800000000     0.523510000000    -0.0826228  
C775     C      0.608290000000     0.145260000000     0.995680000000    -0.0852478  
C776     C      0.632340000000     0.147840000000     0.511270000000     0.0346701  
C777     C      0.636180000000     0.171470000000     0.527030000000    -0.083905   
C778     C      0.615260000000     0.191310000000     0.528000000000     0.0691888  
C779     C      0.588170000000     0.165450000000     0.996790000000     0.0710502  
C780     C      0.652750000000     0.125400000000     0.011050000000     0.0348028  
C781     C      0.644110000000     0.098550000000     0.015850000000    -0.0852437  
C782     C      0.662730000000     0.077030000000     0.012840000000     0.0704982  
C783     C      0.698380000000     0.108110000000     0.500810000000     0.070238   
C784     C      0.680340000000     0.130180000000     0.504060000000    -0.0848796  
C785     C      0.880410000000     0.017300000000     0.835370000000    -0.0828611  
C786     C      0.883820000000     0.007270000000     0.862160000000     0.0338921  
C787     C      0.910420000000     0.499350000000     0.870380000000    -0.084061   
C788     C      0.932610000000     0.501570000000     0.852350000000     0.0705076  
C789     C      0.903300000000     0.019680000000     0.817880000000     0.0688599  
C790     C      0.860450000000     0.006140000000     0.882160000000     0.0344868  
C791     C      0.839590000000     0.026090000000     0.882340000000    -0.0828658  
C792     C      0.820370000000     0.026860000000     0.903850000000     0.0699717  
C793     C      0.841180000000     0.488090000000     0.924330000000     0.070807   
C794     C      0.860060000000     0.486210000000     0.902830000000    -0.0842929  
C795     C      0.641870000000     0.485410000000     0.834080000000    -0.084655   
C796     C      0.644140000000     0.505760000000     0.854140000000     0.034564   
C797     C      0.622750000000     0.024710000000     0.856880000000    -0.0847253  
C798     C      0.599100000000     0.022360000000     0.840630000000     0.0703239  
C799     C      0.618190000000     0.484130000000     0.817530000000     0.0697525  
C800     C      0.666890000000     0.005540000000     0.874450000000     0.0338905  
C801     C      0.669430000000     0.483480000000     0.892420000000    -0.0845281  
C802     C      0.687220000000     0.485300000000     0.914890000000     0.0700425  
C803     C      0.702160000000     0.029200000000     0.900660000000     0.0694632  
C804     C      0.683850000000     0.028390000000     0.878340000000    -0.0843073  
C805     C      0.628770000000     0.475890000000     0.670810000000    -0.0838801  
C806     C      0.626500000000     0.491770000000     0.646940000000     0.0352951  
C807     C      0.603460000000     0.008940000000     0.644210000000    -0.0852383  
C808     C      0.582780000000     0.008830000000     0.664070000000     0.0715997  
C809     C      0.607960000000     0.476850000000     0.690720000000     0.0710503  
C810     C      0.647410000000     0.490030000000     0.624550000000     0.0353137  
C811     C      0.675450000000     0.485050000000     0.630090000000    -0.0838024  
C812     C      0.694520000000     0.483810000000     0.608520000000     0.0708662  
C813     C      0.658920000000     0.492620000000     0.576260000000     0.0723963  
C814     C      0.639310000000     0.493320000000     0.597120000000    -0.0848413  
C815     C      0.859590000000     0.024570000000     0.618130000000    -0.0841191  
C816     C      0.856530000000     0.506340000000     0.639980000000     0.0342387  
C817     C      0.835950000000     0.486330000000     0.638400000000    -0.0845332  
C818     C      0.819180000000     0.484640000000     0.615020000000     0.0695349  
C819     C      0.843020000000     0.021850000000     0.594770000000     0.0696466  
C820     C      0.876890000000     0.006340000000     0.662670000000     0.0337913  
C821     C      0.880010000000     0.028910000000     0.680080000000    -0.0840399  
C822     C      0.901820000000     0.029540000000     0.699080000000     0.0688819  
C823     C      0.917160000000     0.486130000000     0.683790000000     0.0701324  
C824     C      0.895200000000     0.484470000000     0.665300000000    -0.0847845  
C825     C      0.528530000000     0.118320000000     0.855890000000    -0.0846907  
C826     C      0.006880000000     0.137260000000     0.857770000000     0.0340972  
C827     C      0.984810000000     0.134870000000     0.839170000000    -0.0821696  
C828     C      0.983950000000     0.112840000000     0.820740000000     0.0705499  
C829     C      0.526540000000     0.096240000000     0.838060000000     0.0716493  
C830     C      0.006500000000     0.157490000000     0.880730000000     0.0338597  
C831     C      0.517500000000     0.150130000000     0.906290000000    -0.0844889  
C832     C      0.516700000000     0.168270000000     0.928170000000     0.0705652  
C833     C      0.993800000000     0.201260000000     0.900800000000     0.0691721  
C834     C      0.994600000000     0.183540000000     0.878100000000    -0.0822695  
C835     C      0.018940000000     0.379750000000     0.835820000000    -0.0838746  
C836     C      0.508580000000     0.383340000000     0.862370000000     0.0342727  
C837     C      0.498840000000     0.409060000000     0.870140000000    -0.0853768  
C838     C      0.500540000000     0.430880000000     0.851870000000     0.0697799  
C839     C      0.020720000000     0.402220000000     0.818090000000     0.0682597  
C840     C      0.010270000000     0.361420000000     0.883090000000     0.0341091  
C841     C      0.995100000000     0.337210000000     0.880680000000    -0.0836474  
C842     C      0.995000000000     0.318440000000     0.902450000000     0.0693563  
C843     C      0.526010000000     0.346460000000     0.927590000000     0.0702612  
C844     C      0.526250000000     0.365650000000     0.906550000000    -0.0857934  
C845     C      0.994010000000     0.396720000000     0.659760000000    -0.083608   
C846     C      0.516200000000     0.378370000000     0.659120000000     0.0345031  
C847     C      0.535780000000     0.379570000000     0.680350000000    -0.083159   
C848     C      0.534010000000     0.400190000000     0.700250000000     0.0693725  
C849     C      0.993090000000     0.417150000000     0.679620000000     0.0712049  
C850     C      0.519620000000     0.359590000000     0.635310000000     0.0349382  
C851     C      0.029350000000     0.332840000000     0.638530000000    -0.0840691  
C852     C      0.032060000000     0.315800000000     0.615560000000     0.0698194  
C853     C      0.516230000000     0.351230000000     0.586380000000     0.0710805  
C854     C      0.513360000000     0.368720000000     0.608750000000    -0.0846122  
C855     C      0.017610000000     0.098700000000     0.644340000000    -0.0867678  
C856     C      0.010190000000     0.125350000000     0.651490000000     0.0363312  
C857     C      0.500210000000     0.130400000000     0.677960000000    -0.0845167  
C858     C      0.496810000000     0.108640000000     0.696310000000     0.0700465  
C859     C      0.014200000000     0.077600000000     0.663130000000     0.0714035  
C860     C      0.511290000000     0.147060000000     0.630460000000     0.0350308  
C861     C      0.499420000000     0.142260000000     0.604790000000    -0.0861654  
C862     C      0.501870000000     0.161630000000     0.584120000000     0.0713494  
C863     C      0.027080000000     0.190970000000     0.613730000000     0.0695233  
C864     C      0.024760000000     0.171940000000     0.635140000000    -0.0835379  
C865     C      0.999290000000     0.560940000000     0.206430000000     0.403432   
C866     C      0.572410000000     0.999200000000     0.306830000000     0.399352   
C867     C      0.001350000000     0.569420000000     0.306250000000     0.39838    
C868     C      0.563520000000     0.991930000000     0.205510000000     0.401116   
C869     C      0.514860000000     0.942770000000     0.214860000000     0.393426   
C870     C      0.951910000000     0.515410000000     0.309750000000     0.395845   
C871     C      0.944770000000     0.511370000000     0.215190000000     0.393187   
C872     C      0.516170000000     0.950150000000     0.309830000000     0.395125   
C873     C      0.519280000000     0.703460000000     0.066810000000     0.401778   
C874     C      0.957870000000     0.810260000000     0.501750000000     0.402084   
C875     C      0.527210000000     0.807870000000     0.067330000000     0.401309   
C876     C      0.950400000000     0.711060000000     0.497720000000     0.39986    
C877     C      0.002700000000     0.709990000000     0.448490000000     0.393996   
C878     C      0.578290000000     0.796330000000     0.015510000000     0.394199   
C879     C      0.569420000000     0.705760000000     0.016280000000     0.395842   
C880     C      0.007540000000     0.806710000000     0.448590000000     0.395594   
C881     C      0.812970000000     0.948800000000     0.016800000000     0.396535   
C882     C      0.717080000000     0.511050000000     0.443730000000     0.395373   
C883     C      0.716450000000     0.940350000000     0.012410000000     0.392912   
C884     C      0.806510000000     0.512440000000     0.448590000000     0.393705   
C885     C      0.812060000000     0.565470000000     0.494780000000     0.401825   
C886     C      0.705190000000     0.987910000000     0.060840000000     0.402442   
C887     C      0.808200000000     0.998500000000     0.069250000000     0.399143   
C888     C      0.707130000000     0.560160000000     0.500290000000     0.402757   
C889     C      0.918430000000     0.870890000000     0.021330000000    -0.0859907  
C890     C      0.891980000000     0.864220000000     0.511860000000     0.0348327  
C891     C      0.887500000000     0.838410000000     0.500460000000    -0.0845956  
C892     C      0.909720000000     0.820330000000     0.497540000000     0.0701911  
C893     C      0.940010000000     0.852320000000     0.018400000000     0.0711674  
C894     C      0.870080000000     0.885230000000     0.011880000000     0.0345457  
C895     C      0.844110000000     0.880630000000     0.023760000000    -0.0844223  
C896     C      0.824790000000     0.901970000000     0.024910000000     0.0691068  
C897     C      0.855960000000     0.931250000000     0.501470000000     0.0704547  
C898     C      0.875670000000     0.910690000000     0.500300000000    -0.0859416  
C899     C      0.838110000000     0.635620000000     0.986870000000    -0.0837658  
C900     C      0.865180000000     0.632800000000     0.496810000000     0.0350583  
C901     C      0.874060000000     0.606820000000     0.505000000000    -0.084853   
C902     C      0.856010000000     0.584770000000     0.504170000000     0.0716436  
C903     C      0.820540000000     0.612840000000     0.985950000000     0.0701531  
C904     C      0.884560000000     0.656330000000     0.498820000000     0.0349943  
C905     C      0.885840000000     0.676670000000     0.978530000000    -0.0833552  
C906     C      0.907090000000     0.696180000000     0.979280000000     0.070472   
C907     C      0.924710000000     0.676590000000     0.520210000000     0.0720729  
C908     C      0.903530000000     0.657450000000     0.520500000000    -0.0850517  
C909     C      0.643900000000     0.829980000000     0.032180000000    -0.0822477  
C910     C      0.647820000000     0.846140000000     0.008630000000     0.0339638  
C911     C      0.630500000000     0.841340000000     0.486020000000    -0.0841186  
C912     C      0.608090000000     0.823640000000     0.488370000000     0.0708674  
C913     C      0.621710000000     0.811480000000     0.033430000000     0.0693507  
C914     C      0.667610000000     0.869700000000     0.008260000000     0.0338122  
C915     C      0.660920000000     0.893350000000     0.993430000000    -0.0832017  
C916     C      0.678110000000     0.916100000000     0.994220000000     0.0703472  
C917     C      0.709000000000     0.893300000000     0.024160000000     0.0684187  
C918     C      0.692300000000     0.869800000000     0.023510000000    -0.0824829  
C919     C      0.608290000000     0.645260000000     0.495680000000    -0.0857599  
C920     C      0.632330000000     0.647840000000     0.011270000000     0.0342086  
C921     C      0.636180000000     0.671470000000     0.027030000000    -0.0838546  
C922     C      0.615260000000     0.691300000000     0.028000000000     0.0691214  
C923     C      0.588170000000     0.665460000000     0.496790000000     0.07077    
C924     C      0.652750000000     0.625400000000     0.511050000000     0.0348671  
C925     C      0.644110000000     0.598550000000     0.515850000000    -0.0852903  
C926     C      0.662740000000     0.577040000000     0.512840000000     0.0707566  
C927     C      0.698380000000     0.608110000000     0.000810000000     0.069563   
C928     C      0.680340000000     0.630180000000     0.004060000000    -0.0847136  
C929     C      0.880400000000     0.517300000000     0.335370000000    -0.0831604  
C930     C      0.883820000000     0.507260000000     0.362160000000     0.0346862  
C931     C      0.910430000000     0.999350000000     0.370390000000    -0.0826702  
C932     C      0.932610000000     0.001570000000     0.352350000000     0.0691233  
C933     C      0.903300000000     0.519670000000     0.317870000000     0.0690201  
C934     C      0.860440000000     0.506130000000     0.382150000000     0.0347306  
C935     C      0.839580000000     0.526080000000     0.382340000000    -0.0828253  
C936     C      0.820370000000     0.526860000000     0.403850000000     0.0700256  
C937     C      0.841180000000     0.988090000000     0.424330000000     0.0710518  
C938     C      0.860070000000     0.986210000000     0.402840000000    -0.0839157  
C939     C      0.641870000000     0.985410000000     0.334080000000    -0.0842097  
C940     C      0.644140000000     0.005760000000     0.354140000000     0.034174   
C941     C      0.622740000000     0.524710000000     0.356890000000    -0.0847455  
C942     C      0.599090000000     0.522360000000     0.340640000000     0.0703546  
C943     C      0.618200000000     0.984130000000     0.317530000000     0.0700591  
C944     C      0.666890000000     0.505540000000     0.374450000000     0.0343327  
C945     C      0.669430000000     0.983480000000     0.392420000000    -0.0841093  
C946     C      0.687220000000     0.985300000000     0.414890000000     0.0703553  
C947     C      0.702160000000     0.529200000000     0.400650000000     0.0695805  
C948     C      0.683850000000     0.528400000000     0.378340000000    -0.0844759  
C949     C      0.628770000000     0.975890000000     0.170810000000    -0.084051   
C950     C      0.626510000000     0.991770000000     0.146940000000     0.0358188  
C951     C      0.603460000000     0.508940000000     0.144200000000    -0.0846922  
C952     C      0.582780000000     0.508830000000     0.164060000000     0.0717681  
C953     C      0.607960000000     0.976860000000     0.190720000000     0.0712814  
C954     C      0.647410000000     0.990030000000     0.124550000000     0.0352057  
C955     C      0.675450000000     0.985050000000     0.130090000000    -0.0837062  
C956     C      0.694520000000     0.983810000000     0.108520000000     0.0708804  
C957     C      0.658920000000     0.992630000000     0.076260000000     0.0723804  
C958     C      0.639310000000     0.993320000000     0.097120000000    -0.0847112  
C959     C      0.859590000000     0.524570000000     0.118130000000    -0.0841958  
C960     C      0.856530000000     0.006340000000     0.139990000000     0.0338159  
C961     C      0.835950000000     0.986320000000     0.138400000000    -0.0841727  
C962     C      0.819180000000     0.984640000000     0.115020000000     0.0699459  
C963     C      0.843020000000     0.521850000000     0.094770000000     0.0697402  
C964     C      0.876890000000     0.506350000000     0.162670000000     0.0342298  
C965     C      0.880000000000     0.528910000000     0.180080000000    -0.0841798  
C966     C      0.901820000000     0.529540000000     0.199080000000     0.0690464  
C967     C      0.917160000000     0.986130000000     0.183800000000     0.0704164  
C968     C      0.895200000000     0.984470000000     0.165300000000    -0.0843015  
C969     C      0.528530000000     0.618320000000     0.355890000000    -0.0846965  
C970     C      0.006880000000     0.637260000000     0.357770000000     0.0340883  
C971     C      0.984810000000     0.634870000000     0.339170000000    -0.0821629  
C972     C      0.983950000000     0.612840000000     0.320740000000     0.0705437  
C973     C      0.526540000000     0.596240000000     0.338060000000     0.0716685  
C974     C      0.006510000000     0.657490000000     0.380730000000     0.0338519  
C975     C      0.517500000000     0.650130000000     0.406290000000    -0.0844796  
C976     C      0.516710000000     0.668270000000     0.428170000000     0.0704961  
C977     C      0.993800000000     0.701260000000     0.400800000000     0.0691408  
C978     C      0.994610000000     0.683540000000     0.378100000000    -0.0822338  
C979     C      0.018930000000     0.879750000000     0.335820000000    -0.083947   
C980     C      0.508580000000     0.883350000000     0.362370000000     0.0342438  
C981     C      0.498850000000     0.909070000000     0.370140000000    -0.0852651  
C982     C      0.500550000000     0.930890000000     0.351880000000     0.0697149  
C983     C      0.020720000000     0.902220000000     0.318100000000     0.0682914  
C984     C      0.010270000000     0.861430000000     0.383090000000     0.0340051  
C985     C      0.995100000000     0.837210000000     0.380680000000    -0.0836049  
C986     C      0.995000000000     0.818440000000     0.402450000000     0.069323   
C987     C      0.526010000000     0.846460000000     0.427590000000     0.0702429  
C988     C      0.526250000000     0.865650000000     0.406560000000    -0.0857699  
C989     C      0.994010000000     0.896720000000     0.159760000000    -0.083665   
C990     C      0.516200000000     0.878370000000     0.159120000000     0.0344937  
C991     C      0.535790000000     0.879570000000     0.180360000000    -0.0832286  
C992     C      0.534010000000     0.900190000000     0.200250000000     0.06944    
C993     C      0.993090000000     0.917150000000     0.179620000000     0.0712489  
C994     C      0.519620000000     0.859590000000     0.135310000000     0.0349475  
C995     C      0.029350000000     0.832840000000     0.138530000000    -0.084067   
C996     C      0.032060000000     0.815800000000     0.115560000000     0.0698152  
C997     C      0.516230000000     0.851240000000     0.086380000000     0.0709509  
C998     C      0.513360000000     0.868720000000     0.108760000000    -0.0845571  
C999     C      0.017610000000     0.598700000000     0.144340000000    -0.0867796  
C1000    C      0.010190000000     0.625350000000     0.151490000000     0.0363395  
C1001    C      0.500210000000     0.630400000000     0.177960000000    -0.0844831  
C1002    C      0.496810000000     0.608640000000     0.196310000000     0.0700421  
C1003    C      0.014200000000     0.577600000000     0.163130000000     0.0714572  
C1004    C      0.511290000000     0.647060000000     0.130460000000     0.0350122  
C1005    C      0.499420000000     0.642270000000     0.104790000000    -0.0861619  
C1006    C      0.501870000000     0.661630000000     0.084130000000     0.0713538  
C1007    C      0.027080000000     0.690970000000     0.113730000000     0.06951    
C1008    C      0.024760000000     0.671940000000     0.135140000000    -0.0835433  
C1009    C      0.999290000000     0.560940000000     0.706430000000     0.403445   
C1010    C      0.572410000000     0.999200000000     0.806830000000     0.399351   
C1011    C      0.001350000000     0.569420000000     0.806250000000     0.398381   
C1012    C      0.563520000000     0.991930000000     0.705520000000     0.401176   
C1013    C      0.514860000000     0.942770000000     0.714860000000     0.393423   
C1014    C      0.951910000000     0.515410000000     0.809750000000     0.395845   
C1015    C      0.944770000000     0.511370000000     0.715190000000     0.393184   
C1016    C      0.516170000000     0.950150000000     0.809830000000     0.39513    
C1017    C      0.519280000000     0.703460000000     0.566810000000     0.401798   
C1018    C      0.957870000000     0.810250000000     0.001750000000     0.401623   
C1019    C      0.527210000000     0.807870000000     0.567330000000     0.401218   
C1020    C      0.950400000000     0.711060000000     0.997720000000     0.400447   
C1021    C      0.002700000000     0.709990000000     0.948490000000     0.39396    
C1022    C      0.578290000000     0.796330000000     0.515510000000     0.394224   
C1023    C      0.569420000000     0.705760000000     0.516280000000     0.395878   
C1024    C      0.007540000000     0.806710000000     0.948590000000     0.39559    
C1025    C      0.812970000000     0.948800000000     0.516800000000     0.396584   
C1026    C      0.717080000000     0.511050000000     0.943730000000     0.395384   
C1027    C      0.716450000000     0.940350000000     0.512410000000     0.39364    
C1028    C      0.806510000000     0.512440000000     0.948590000000     0.393813   
C1029    C      0.812060000000     0.565470000000     0.994780000000     0.40229    
C1030    C      0.705190000000     0.987910000000     0.560850000000     0.402605   
C1031    C      0.808200000000     0.998500000000     0.569250000000     0.399203   
C1032    C      0.707130000000     0.560160000000     0.000290000000     0.402149   
C1033    C      0.918430000000     0.870890000000     0.521320000000    -0.0856197  
C1034    C      0.891980000000     0.864220000000     0.011870000000     0.0353003  
C1035    C      0.887500000000     0.838410000000     0.000460000000    -0.0861157  
C1036    C      0.909720000000     0.820330000000     0.997550000000     0.0715248  
C1037    C      0.940010000000     0.852320000000     0.518400000000     0.0710595  
C1038    C      0.870080000000     0.885230000000     0.511880000000     0.0346999  
C1039    C      0.844120000000     0.880630000000     0.523750000000    -0.0843649  
C1040    C      0.824790000000     0.901970000000     0.524910000000     0.0690642  
C1041    C      0.855960000000     0.931250000000     0.001480000000     0.070012   
C1042    C      0.875670000000     0.910690000000     0.000300000000    -0.0863096  
C1043    C      0.838110000000     0.635620000000     0.486870000000    -0.083707   
C1044    C      0.865180000000     0.632800000000     0.996810000000     0.0354852  
C1045    C      0.874060000000     0.606820000000     0.005000000000    -0.0853078  
C1046    C      0.856010000000     0.584770000000     0.004170000000     0.071347   
C1047    C      0.820540000000     0.612840000000     0.485950000000     0.0700085  
C1048    C      0.884560000000     0.656330000000     0.998820000000     0.0354611  
C1049    C      0.885840000000     0.676670000000     0.478530000000    -0.0832673  
C1050    C      0.907090000000     0.696180000000     0.479280000000     0.0703225  
C1051    C      0.924700000000     0.676590000000     0.020210000000     0.0718272  
C1052    C      0.903520000000     0.657450000000     0.020510000000    -0.0855661  
C1053    C      0.643900000000     0.829970000000     0.532180000000    -0.0822474  
C1054    C      0.647820000000     0.846140000000     0.508630000000     0.0343503  
C1055    C      0.630500000000     0.841340000000     0.986020000000    -0.0836003  
C1056    C      0.608090000000     0.823640000000     0.988370000000     0.071189   
C1057    C      0.621720000000     0.811470000000     0.533430000000     0.0694041  
C1058    C      0.667610000000     0.869700000000     0.508260000000     0.0342927  
C1059    C      0.660920000000     0.893350000000     0.493430000000    -0.0837599  
C1060    C      0.678110000000     0.916100000000     0.494230000000     0.0701476  
C1061    C      0.709000000000     0.893300000000     0.524160000000     0.0685925  
C1062    C      0.692300000000     0.869800000000     0.523510000000    -0.0826263  
C1063    C      0.608290000000     0.645260000000     0.995680000000    -0.0852322  
C1064    C      0.632340000000     0.647840000000     0.511270000000     0.0346887  
C1065    C      0.636180000000     0.671470000000     0.527030000000    -0.083963   
C1066    C      0.615260000000     0.691300000000     0.528000000000     0.0692531  
C1067    C      0.588170000000     0.665450000000     0.996790000000     0.0710465  
C1068    C      0.652750000000     0.625400000000     0.011050000000     0.0348303  
C1069    C      0.644110000000     0.598550000000     0.015850000000    -0.0852618  
C1070    C      0.662740000000     0.577030000000     0.012840000000     0.0706086  
C1071    C      0.698380000000     0.608110000000     0.500810000000     0.0702537  
C1072    C      0.680340000000     0.630180000000     0.504060000000    -0.0848885  
C1073    C      0.880400000000     0.517300000000     0.835370000000    -0.0831603  
C1074    C      0.883820000000     0.507260000000     0.862160000000     0.0346941  
C1075    C      0.910430000000     0.999350000000     0.870390000000    -0.0826666  
C1076    C      0.932610000000     0.001570000000     0.852350000000     0.0691329  
C1077    C      0.903300000000     0.519670000000     0.817870000000     0.0690224  
C1078    C      0.860440000000     0.506130000000     0.882150000000     0.0347411  
C1079    C      0.839580000000     0.526080000000     0.882340000000    -0.0828219  
C1080    C      0.820370000000     0.526860000000     0.903850000000     0.0700451  
C1081    C      0.841180000000     0.988090000000     0.924330000000     0.0710779  
C1082    C      0.860070000000     0.986210000000     0.902840000000    -0.0838991  
C1083    C      0.641870000000     0.985410000000     0.834080000000    -0.0842447  
C1084    C      0.644140000000     0.005760000000     0.854130000000     0.0342198  
C1085    C      0.622740000000     0.524710000000     0.856890000000    -0.0847465  
C1086    C      0.599090000000     0.522360000000     0.840640000000     0.0703647  
C1087    C      0.618200000000     0.984130000000     0.817530000000     0.0700738  
C1088    C      0.666890000000     0.505540000000     0.874450000000     0.0343093  
C1089    C      0.669430000000     0.983480000000     0.892420000000    -0.0840579  
C1090    C      0.687220000000     0.985300000000     0.914890000000     0.0702907  
C1091    C      0.702160000000     0.529200000000     0.900650000000     0.0695722  
C1092    C      0.683850000000     0.528400000000     0.878340000000    -0.0843929  
C1093    C      0.628770000000     0.975890000000     0.670810000000    -0.0840295  
C1094    C      0.626510000000     0.991770000000     0.646940000000     0.0357914  
C1095    C      0.603460000000     0.508940000000     0.644200000000    -0.0847571  
C1096    C      0.582780000000     0.508830000000     0.664060000000     0.0717968  
C1097    C      0.607960000000     0.976860000000     0.690720000000     0.071257   
C1098    C      0.647410000000     0.990030000000     0.624550000000     0.0352294  
C1099    C      0.675450000000     0.985050000000     0.630090000000    -0.0837191  
C1100    C      0.694520000000     0.983810000000     0.608520000000     0.0708988  
C1101    C      0.658920000000     0.992620000000     0.576260000000     0.0724524  
C1102    C      0.639310000000     0.993320000000     0.597120000000    -0.0847352  
C1103    C      0.859590000000     0.524570000000     0.618130000000    -0.0841954  
C1104    C      0.856530000000     0.006340000000     0.639990000000     0.0338192  
C1105    C      0.835950000000     0.986320000000     0.638400000000    -0.0841734  
C1106    C      0.819180000000     0.984640000000     0.615020000000     0.0699467  
C1107    C      0.843020000000     0.521850000000     0.594770000000     0.0697682  
C1108    C      0.876890000000     0.506340000000     0.662670000000     0.034233   
C1109    C      0.880000000000     0.528910000000     0.680080000000    -0.0841652  
C1110    C      0.901820000000     0.529540000000     0.699080000000     0.0690387  
C1111    C      0.917160000000     0.986130000000     0.683790000000     0.0704083  
C1112    C      0.895200000000     0.984470000000     0.665300000000    -0.0843129  
C1113    C      0.528530000000     0.618320000000     0.855890000000    -0.084754   
C1114    C      0.006880000000     0.637260000000     0.857770000000     0.0340927  
C1115    C      0.984810000000     0.634870000000     0.839170000000    -0.0821609  
C1116    C      0.983950000000     0.612840000000     0.820740000000     0.0705456  
C1117    C      0.526540000000     0.596230000000     0.838060000000     0.0716957  
C1118    C      0.006500000000     0.657490000000     0.880730000000     0.0338822  
C1119    C      0.517500000000     0.650130000000     0.906290000000    -0.0845575  
C1120    C      0.516700000000     0.668270000000     0.928170000000     0.0706474  
C1121    C      0.993800000000     0.701260000000     0.900800000000     0.0691341  
C1122    C      0.994600000000     0.683530000000     0.878100000000    -0.0822368  
C1123    C      0.018930000000     0.879750000000     0.835820000000    -0.0839793  
C1124    C      0.508580000000     0.883350000000     0.862370000000     0.0342541  
C1125    C      0.498850000000     0.909070000000     0.870140000000    -0.0852829  
C1126    C      0.500550000000     0.930890000000     0.851870000000     0.0697952  
C1127    C      0.020720000000     0.902220000000     0.818100000000     0.0683622  
C1128    C      0.010270000000     0.861430000000     0.883090000000     0.0340022  
C1129    C      0.995100000000     0.837210000000     0.880680000000    -0.0835774  
C1130    C      0.995000000000     0.818440000000     0.902450000000     0.0693292  
C1131    C      0.526010000000     0.846460000000     0.927590000000     0.0702301  
C1132    C      0.526250000000     0.865650000000     0.906550000000    -0.0857287  
C1133    C      0.994010000000     0.896720000000     0.659760000000    -0.0836668  
C1134    C      0.516200000000     0.878370000000     0.659120000000     0.0345061  
C1135    C      0.535780000000     0.879570000000     0.680350000000    -0.0831557  
C1136    C      0.534010000000     0.900190000000     0.700250000000     0.0693823  
C1137    C      0.993090000000     0.917150000000     0.679620000000     0.0712507  
C1138    C      0.519620000000     0.859590000000     0.635310000000     0.0349489  
C1139    C      0.029350000000     0.832840000000     0.638530000000    -0.0840632  
C1140    C      0.032060000000     0.815800000000     0.615560000000     0.0698181  
C1141    C      0.516230000000     0.851240000000     0.586380000000     0.0709738  
C1142    C      0.513360000000     0.868720000000     0.608750000000    -0.0845936  
C1143    C      0.017610000000     0.598700000000     0.644340000000    -0.0867384  
C1144    C      0.010190000000     0.625350000000     0.651490000000     0.0363308  
C1145    C      0.500210000000     0.630400000000     0.677960000000    -0.0845329  
C1146    C      0.496810000000     0.608640000000     0.696310000000     0.0700625  
C1147    C      0.014200000000     0.577600000000     0.663130000000     0.0714084  
C1148    C      0.511290000000     0.647060000000     0.630460000000     0.0350267  
C1149    C      0.499420000000     0.642260000000     0.604790000000    -0.0861398  
C1150    C      0.501870000000     0.661630000000     0.584120000000     0.0713059  
C1151    C      0.027080000000     0.690970000000     0.613730000000     0.0695058  
C1152    C      0.024760000000     0.671940000000     0.635140000000    -0.0835356  
Co1      Co     0.504670000000     0.001960000000     0.220730000000     0.856851   
Co2      Co     0.012420000000     0.510050000000     0.299170000000     0.862131   
Co3      Co     0.480180000000     0.036470000000     0.259240000000     0.81845    
Co4      Co     0.038820000000     0.477590000000     0.259670000000     0.817239   
Co5      Co     0.010250000000     0.218440000000     0.008480000000     0.867039   
Co6      Co     0.517700000000     0.296030000000     0.507710000000     0.867551   
Co7      Co     0.040730000000     0.254670000000     0.040520000000     0.812265   
Co8      Co     0.483190000000     0.259180000000     0.479580000000     0.811842   
Co9      Co     0.299910000000     0.507430000000     0.009080000000     0.855501   
Co10     Co     0.221110000000     0.000410000000     0.503290000000     0.855836   
Co11     Co     0.260920000000     0.475700000000     0.036970000000     0.817848   
Co12     Co     0.259780000000     0.036430000000     0.480380000000     0.824639   
Co13     Co     0.504670000000     0.001960000000     0.720730000000     0.856838   
Co14     Co     0.012420000000     0.510050000000     0.799170000000     0.86213    
Co15     Co     0.480180000000     0.036470000000     0.759240000000     0.818446   
Co16     Co     0.038820000000     0.477590000000     0.759670000000     0.817248   
Co17     Co     0.010250000000     0.218440000000     0.508480000000     0.867456   
Co18     Co     0.517700000000     0.296030000000     0.007710000000     0.866984   
Co19     Co     0.040730000000     0.254670000000     0.540520000000     0.81222    
Co20     Co     0.483190000000     0.259180000000     0.979580000000     0.81238    
Co21     Co     0.299910000000     0.507430000000     0.509080000000     0.855845   
Co22     Co     0.221110000000     0.000410000000     0.003290000000     0.855096   
Co23     Co     0.260920000000     0.475700000000     0.536970000000     0.817961   
Co24     Co     0.259780000000     0.036430000000     0.980380000000     0.825075   
Co25     Co     0.504670000000     0.501960000000     0.220730000000     0.857558   
Co26     Co     0.012420000000     0.010050000000     0.299170000000     0.861735   
Co27     Co     0.480180000000     0.536480000000     0.259240000000     0.818653   
Co28     Co     0.038820000000     0.977590000000     0.259670000000     0.817717   
Co29     Co     0.010250000000     0.718440000000     0.008480000000     0.867076   
Co30     Co     0.517700000000     0.796030000000     0.507710000000     0.867621   
Co31     Co     0.040730000000     0.754680000000     0.040520000000     0.812302   
Co32     Co     0.483190000000     0.759180000000     0.479580000000     0.81181    
Co33     Co     0.299910000000     0.007440000000     0.009080000000     0.855166   
Co34     Co     0.221110000000     0.500410000000     0.503290000000     0.856764   
Co35     Co     0.260920000000     0.975700000000     0.036980000000     0.81848    
Co36     Co     0.259780000000     0.536430000000     0.480380000000     0.824603   
Co37     Co     0.504670000000     0.501960000000     0.720730000000     0.857493   
Co38     Co     0.012420000000     0.010050000000     0.799170000000     0.861731   
Co39     Co     0.480180000000     0.536480000000     0.759240000000     0.818674   
Co40     Co     0.038820000000     0.977590000000     0.759670000000     0.817711   
Co41     Co     0.010250000000     0.718440000000     0.508480000000     0.867464   
Co42     Co     0.517700000000     0.796030000000     0.007710000000     0.867069   
Co43     Co     0.040730000000     0.754680000000     0.540520000000     0.812414   
Co44     Co     0.483190000000     0.759180000000     0.979580000000     0.812347   
Co45     Co     0.299910000000     0.007440000000     0.509080000000     0.855579   
Co46     Co     0.221110000000     0.500410000000     0.003290000000     0.855987   
Co47     Co     0.260920000000     0.975700000000     0.536970000000     0.818471   
Co48     Co     0.259780000000     0.536430000000     0.980380000000     0.825134   
Co49     Co     0.004670000000     0.001960000000     0.220730000000     0.855653   
Co50     Co     0.512420000000     0.510050000000     0.299170000000     0.862871   
Co51     Co     0.980180000000     0.036480000000     0.259240000000     0.819403   
Co52     Co     0.538820000000     0.477580000000     0.259670000000     0.81732    
Co53     Co     0.510250000000     0.218440000000     0.008480000000     0.867721   
Co54     Co     0.017700000000     0.296030000000     0.507710000000     0.866807   
Co55     Co     0.540730000000     0.254670000000     0.040520000000     0.812229   
Co56     Co     0.983190000000     0.259180000000     0.479580000000     0.812679   
Co57     Co     0.799910000000     0.507430000000     0.009080000000     0.85564    
Co58     Co     0.721110000000     0.000410000000     0.503290000000     0.855841   
Co59     Co     0.760920000000     0.475700000000     0.036970000000     0.817757   
Co60     Co     0.759780000000     0.036430000000     0.480380000000     0.824658   
Co61     Co     0.004670000000     0.001960000000     0.720730000000     0.85566    
Co62     Co     0.512420000000     0.510040000000     0.799170000000     0.862835   
Co63     Co     0.980180000000     0.036480000000     0.759240000000     0.819402   
Co64     Co     0.538820000000     0.477580000000     0.759670000000     0.817275   
Co65     Co     0.510250000000     0.218440000000     0.508480000000     0.868167   
Co66     Co     0.017700000000     0.296030000000     0.007710000000     0.866331   
Co67     Co     0.540730000000     0.254670000000     0.540520000000     0.812097   
Co68     Co     0.983190000000     0.259180000000     0.979580000000     0.813123   
Co69     Co     0.799910000000     0.507430000000     0.509080000000     0.855897   
Co70     Co     0.721110000000     0.000410000000     0.003290000000     0.855125   
Co71     Co     0.760920000000     0.475700000000     0.536970000000     0.81787    
Co72     Co     0.759780000000     0.036430000000     0.980380000000     0.825191   
Co73     Co     0.004670000000     0.501960000000     0.220730000000     0.856327   
Co74     Co     0.512420000000     0.010050000000     0.299170000000     0.862449   
Co75     Co     0.980180000000     0.536480000000     0.259240000000     0.819462   
Co76     Co     0.538820000000     0.977580000000     0.259670000000     0.817893   
Co77     Co     0.510250000000     0.718440000000     0.008480000000     0.867785   
Co78     Co     0.017700000000     0.796030000000     0.507710000000     0.866824   
Co79     Co     0.540730000000     0.754670000000     0.040520000000     0.812125   
Co80     Co     0.983190000000     0.759180000000     0.479580000000     0.812646   
Co81     Co     0.799910000000     0.007430000000     0.009080000000     0.855233   
Co82     Co     0.721110000000     0.500410000000     0.503290000000     0.856791   
Co83     Co     0.760920000000     0.975700000000     0.036980000000     0.818425   
Co84     Co     0.759780000000     0.536430000000     0.480380000000     0.824598   
Co85     Co     0.004670000000     0.501960000000     0.720730000000     0.856315   
Co86     Co     0.512420000000     0.010050000000     0.799170000000     0.862448   
Co87     Co     0.980180000000     0.536480000000     0.759240000000     0.819457   
Co88     Co     0.538820000000     0.977580000000     0.759670000000     0.817903   
Co89     Co     0.510250000000     0.718440000000     0.508480000000     0.868244   
Co90     Co     0.017700000000     0.796030000000     0.007710000000     0.866257   
Co91     Co     0.540730000000     0.754670000000     0.540520000000     0.812071   
Co92     Co     0.983190000000     0.759180000000     0.979580000000     0.813221   
Co93     Co     0.799910000000     0.007430000000     0.509080000000     0.855664   
Co94     Co     0.721110000000     0.500410000000     0.003290000000     0.856014   
Co95     Co     0.760920000000     0.975700000000     0.536980000000     0.818467   
Co96     Co     0.759780000000     0.536430000000     0.980380000000     0.825131   
H1       H      0.367260000000     0.332660000000     0.492860000000     0.0531822  
H2       H      0.405640000000     0.300750000000     0.487990000000     0.0323457  
H3       H      0.460240000000     0.358570000000     0.025690000000     0.0322002  
H4       H      0.422530000000     0.390650000000     0.030500000000     0.0533325  
H5       H      0.339120000000     0.361030000000     0.032780000000     0.0528418  
H6       H      0.305120000000     0.398040000000     0.034840000000     0.0315632  
H7       H      0.361520000000     0.450700000000     0.492370000000     0.0336973  
H8       H      0.395360000000     0.414780000000     0.490480000000     0.0532619  
H9       H      0.395040000000     0.103310000000     0.511930000000     0.0530442  
H10      H      0.363990000000     0.065210000000     0.510960000000     0.0329229  
H11      H      0.299650000000     0.115840000000     0.978430000000     0.0313525  
H12      H      0.330340000000     0.155310000000     0.980310000000     0.0520171  
H13      H      0.371480000000     0.176750000000     0.961480000000     0.0524565  
H14      H      0.408240000000     0.210880000000     0.962670000000     0.0313423  
H15      H      0.439460000000     0.175940000000     0.536980000000     0.0315951  
H16      H      0.402620000000     0.143030000000     0.537340000000     0.0521798  
H17      H      0.133420000000     0.352030000000     0.466780000000     0.0512024  
H18      H      0.094450000000     0.321740000000     0.470780000000     0.0296815  
H19      H      0.118500000000     0.300400000000     0.052450000000     0.0315533  
H20      H      0.156740000000     0.332650000000     0.050180000000     0.0521306  
H21      H      0.141870000000     0.394940000000     0.981870000000     0.0522549  
H22      H      0.171520000000     0.433830000000     0.982590000000     0.03367    
H23      H      0.227600000000     0.392740000000     0.536580000000     0.0317669  
H24      H      0.198650000000     0.351990000000     0.535050000000     0.0513109  
H25      H      0.154750000000     0.174170000000     0.039170000000     0.0531726  
H26      H      0.118420000000     0.208960000000     0.041050000000     0.0322195  
H27      H      0.069750000000     0.162220000000     0.484510000000     0.0333356  
H28      H      0.104930000000     0.127530000000     0.482790000000     0.0530324  
H29      H      0.122890000000     0.094170000000     0.521510000000     0.0533381  
H30      H      0.155060000000     0.056540000000     0.516440000000     0.0320112  
H31      H      0.219480000000     0.112600000000     0.994770000000     0.0325011  
H32      H      0.187660000000     0.150720000000     0.000110000000     0.0529568  
H33      H      0.414500000000     0.492150000000     0.391010000000     0.0522369  
H34      H      0.452730000000     0.495360000000     0.359960000000     0.0330846  
H35      H      0.399850000000     0.027780000000     0.297440000000     0.0322501  
H36      H      0.360240000000     0.023350000000     0.327880000000     0.0516469  
H37      H      0.338870000000     0.041930000000     0.366860000000     0.0524397  
H38      H      0.305310000000     0.043270000000     0.403860000000     0.0329753  
H39      H      0.342440000000     0.472820000000     0.440430000000     0.0308172  
H40      H      0.374850000000     0.469610000000     0.403010000000     0.051422   
H41      H      0.123720000000     0.040550000000     0.372400000000     0.0537138  
H42      H      0.082710000000     0.037120000000     0.343960000000     0.0318315  
H43      H      0.116980000000     0.467870000000     0.302470000000     0.0315382  
H44      H      0.158040000000     0.470310000000     0.331580000000     0.0532113  
H45      H      0.156560000000     0.465520000000     0.390040000000     0.0536163  
H46      H      0.187710000000     0.468120000000     0.428950000000     0.0313734  
H47      H      0.214370000000     0.047550000000     0.403540000000     0.0318581  
H48      H      0.182340000000     0.045830000000     0.364740000000     0.0532885  
H49      H      0.101170000000     0.022420000000     0.126730000000     0.051811   
H50      H      0.065150000000     0.022150000000     0.160790000000     0.0315355  
H51      H      0.110240000000     0.463880000000     0.208620000000     0.0320683  
H52      H      0.146020000000     0.462140000000     0.173850000000     0.0522976  
H53      H      0.182830000000     0.482620000000     0.150930000000     0.0521663  
H54      H      0.216030000000     0.480170000000     0.113650000000     0.0312863  
H55      H      0.151550000000     0.995500000000     0.055420000000     0.0327629  
H56      H      0.117840000000     0.996240000000     0.091560000000     0.052573   
H57      H      0.333200000000     0.471760000000     0.154930000000     0.0532673  
H58      H      0.303710000000     0.468620000000     0.114440000000     0.0320361  
H59      H      0.346560000000     0.036010000000     0.078010000000     0.0320491  
H60      H      0.375530000000     0.040130000000     0.118600000000     0.0539788  
H61      H      0.366090000000     0.046180000000     0.178540000000     0.0534066  
H62      H      0.404090000000     0.047630000000     0.211700000000     0.0316501  
H63      H      0.431450000000     0.469070000000     0.184430000000     0.031348   
H64      H      0.393360000000     0.466710000000     0.152150000000     0.0537468  
H65      H      0.467610000000     0.149010000000     0.339700000000     0.0523118  
H66      H      0.466080000000     0.111030000000     0.307410000000     0.0313632  
H67      H      0.043390000000     0.081600000000     0.338150000000     0.0309439  
H68      H      0.046710000000     0.119940000000     0.368780000000     0.0514045  
H69      H      0.026190000000     0.130070000000     0.409840000000     0.0522624  
H70      H      0.025450000000     0.161230000000     0.447410000000     0.0332382  
H71      H      0.484220000000     0.221090000000     0.398110000000     0.0314813  
H72      H      0.485990000000     0.190240000000     0.358730000000     0.0514555  
H73      H      0.990570000000     0.412440000000     0.390540000000     0.0533623  
H74      H      0.993190000000     0.450560000000     0.359020000000     0.0337669  
H75      H      0.529650000000     0.398900000000     0.297950000000     0.0323712  
H76      H      0.526690000000     0.360050000000     0.329260000000     0.0531432  
H77      H      0.482610000000     0.333350000000     0.362620000000     0.0531466  
H78      H      0.482310000000     0.300310000000     0.400390000000     0.0317387  
H79      H      0.038440000000     0.350970000000     0.445560000000     0.0333877  
H80      H      0.038500000000     0.384050000000     0.408860000000     0.0539474  
H81      H      0.053190000000     0.365670000000     0.180800000000     0.0521976  
H82      H      0.050290000000     0.401310000000     0.215530000000     0.0322183  
H83      H      0.476030000000     0.431490000000     0.178600000000     0.0316369  
H84      H      0.477790000000     0.395900000000     0.144440000000     0.0520641  
H85      H      0.534390000000     0.324900000000     0.158680000000     0.0519475  
H86      H      0.539370000000     0.295140000000     0.118970000000     0.0318361  
H87      H      0.010950000000     0.359310000000     0.066310000000     0.0322632  
H88      H      0.006490000000     0.389460000000     0.105100000000     0.0528784  
H89      H      0.994200000000     0.150820000000     0.184100000000     0.0544074  
H90      H      0.988500000000     0.113190000000     0.216480000000     0.0316689  
H91      H      0.520010000000     0.057250000000     0.156480000000     0.0323374  
H92      H      0.525740000000     0.094100000000     0.124120000000     0.0530039  
H93      H      0.988410000000     0.123450000000     0.100580000000     0.0526223  
H94      H      0.992450000000     0.156730000000     0.064520000000     0.0343147  
H95      H      0.538160000000     0.209790000000     0.117780000000     0.0312232  
H96      H      0.534150000000     0.176290000000     0.154860000000     0.0531428  
H97      H      0.367260000000     0.332660000000     0.992870000000     0.053894   
H98      H      0.405640000000     0.300750000000     0.987990000000     0.0321159  
H99      H      0.460240000000     0.358570000000     0.525690000000     0.0322823  
H100     H      0.422530000000     0.390650000000     0.530500000000     0.0533312  
H101     H      0.339120000000     0.361030000000     0.532780000000     0.0528865  
H102     H      0.305120000000     0.398040000000     0.534840000000     0.031599   
H103     H      0.361520000000     0.450700000000     0.992370000000     0.0341338  
H104     H      0.395350000000     0.414780000000     0.990480000000     0.0537293  
H105     H      0.395040000000     0.103310000000     0.011940000000     0.0530612  
H106     H      0.363990000000     0.065210000000     0.010960000000     0.0328975  
H107     H      0.299650000000     0.115840000000     0.478430000000     0.0313306  
H108     H      0.330340000000     0.155310000000     0.480310000000     0.0519389  
H109     H      0.371480000000     0.176750000000     0.461480000000     0.0524589  
H110     H      0.408240000000     0.210880000000     0.462670000000     0.0313571  
H111     H      0.439460000000     0.175950000000     0.036980000000     0.0316415  
H112     H      0.402620000000     0.143030000000     0.037350000000     0.0521626  
H113     H      0.133430000000     0.352030000000     0.966780000000     0.0511633  
H114     H      0.094450000000     0.321740000000     0.970780000000     0.0297161  
H115     H      0.118500000000     0.300400000000     0.552450000000     0.0315567  
H116     H      0.156750000000     0.332640000000     0.550180000000     0.0521508  
H117     H      0.141870000000     0.394940000000     0.481870000000     0.0522396  
H118     H      0.171510000000     0.433830000000     0.482590000000     0.0336431  
H119     H      0.227600000000     0.392740000000     0.036590000000     0.0317791  
H120     H      0.198650000000     0.351990000000     0.035060000000     0.0512372  
H121     H      0.154750000000     0.174170000000     0.539180000000     0.0532167  
H122     H      0.118420000000     0.208960000000     0.541060000000     0.0322192  
H123     H      0.069750000000     0.162220000000     0.984510000000     0.0333644  
H124     H      0.104920000000     0.127530000000     0.982790000000     0.0530579  
H125     H      0.122890000000     0.094170000000     0.021510000000     0.0532581  
H126     H      0.155060000000     0.056540000000     0.016440000000     0.0319774  
H127     H      0.219480000000     0.112600000000     0.494770000000     0.032013   
H128     H      0.187660000000     0.150720000000     0.500110000000     0.0531264  
H129     H      0.414500000000     0.492150000000     0.891010000000     0.052272   
H130     H      0.452730000000     0.495360000000     0.859960000000     0.0331001  
H131     H      0.399850000000     0.027780000000     0.797440000000     0.0322484  
H132     H      0.360240000000     0.023350000000     0.827880000000     0.0516477  
H133     H      0.338870000000     0.041930000000     0.866860000000     0.052445   
H134     H      0.305310000000     0.043270000000     0.903860000000     0.03299    
H135     H      0.342440000000     0.472820000000     0.940430000000     0.030888   
H136     H      0.374850000000     0.469610000000     0.903010000000     0.0514383  
H137     H      0.123720000000     0.040550000000     0.872400000000     0.0537285  
H138     H      0.082710000000     0.037120000000     0.843960000000     0.0318422  
H139     H      0.116980000000     0.467870000000     0.802470000000     0.0315378  
H140     H      0.158040000000     0.470310000000     0.831580000000     0.0532163  
H141     H      0.156560000000     0.465510000000     0.890040000000     0.0535942  
H142     H      0.187710000000     0.468120000000     0.928940000000     0.0313967  
H143     H      0.214370000000     0.047550000000     0.903540000000     0.031858   
H144     H      0.182340000000     0.045830000000     0.864740000000     0.0533084  
H145     H      0.101170000000     0.022420000000     0.626730000000     0.0518223  
H146     H      0.065150000000     0.022140000000     0.660790000000     0.0315572  
H147     H      0.110240000000     0.463880000000     0.708620000000     0.0320759  
H148     H      0.146020000000     0.462140000000     0.673850000000     0.0522912  
H149     H      0.182830000000     0.482620000000     0.650930000000     0.0521765  
H150     H      0.216030000000     0.480170000000     0.613650000000     0.0312716  
H151     H      0.151550000000     0.995500000000     0.555420000000     0.0328063  
H152     H      0.117840000000     0.996240000000     0.591560000000     0.0525974  
H153     H      0.333200000000     0.471760000000     0.654930000000     0.0532674  
H154     H      0.303710000000     0.468620000000     0.614440000000     0.0320314  
H155     H      0.346560000000     0.036010000000     0.578010000000     0.0320721  
H156     H      0.375530000000     0.040130000000     0.618600000000     0.053991   
H157     H      0.366090000000     0.046180000000     0.678540000000     0.0534203  
H158     H      0.404090000000     0.047630000000     0.711700000000     0.0316478  
H159     H      0.431450000000     0.469070000000     0.684430000000     0.0313592  
H160     H      0.393360000000     0.466710000000     0.652150000000     0.0537473  
H161     H      0.467610000000     0.149010000000     0.839700000000     0.0523135  
H162     H      0.466080000000     0.111020000000     0.807410000000     0.0313747  
H163     H      0.043380000000     0.081600000000     0.838150000000     0.0309467  
H164     H      0.046700000000     0.119940000000     0.868780000000     0.0514311  
H165     H      0.026190000000     0.130070000000     0.909840000000     0.0523026  
H166     H      0.025450000000     0.161230000000     0.947410000000     0.0332945  
H167     H      0.484220000000     0.221090000000     0.898110000000     0.0314868  
H168     H      0.485980000000     0.190240000000     0.858730000000     0.0514405  
H169     H      0.990570000000     0.412440000000     0.890540000000     0.053397   
H170     H      0.993190000000     0.450560000000     0.859020000000     0.0337804  
H171     H      0.529650000000     0.398890000000     0.797950000000     0.0323584  
H172     H      0.526690000000     0.360050000000     0.829260000000     0.0531459  
H173     H      0.482610000000     0.333350000000     0.862620000000     0.0531524  
H174     H      0.482310000000     0.300310000000     0.900390000000     0.0317455  
H175     H      0.038440000000     0.350970000000     0.945560000000     0.0334429  
H176     H      0.038500000000     0.384040000000     0.908860000000     0.0540227  
H177     H      0.053190000000     0.365670000000     0.680800000000     0.0521845  
H178     H      0.050290000000     0.401310000000     0.715530000000     0.0322223  
H179     H      0.476030000000     0.431490000000     0.678600000000     0.0316417  
H180     H      0.477790000000     0.395900000000     0.644440000000     0.0520681  
H181     H      0.534380000000     0.324900000000     0.658680000000     0.0519604  
H182     H      0.539370000000     0.295140000000     0.618970000000     0.031836   
H183     H      0.010950000000     0.359310000000     0.566310000000     0.0322929  
H184     H      0.006490000000     0.389460000000     0.605100000000     0.0528979  
H185     H      0.994200000000     0.150820000000     0.684100000000     0.0544028  
H186     H      0.988500000000     0.113190000000     0.716480000000     0.0316653  
H187     H      0.520010000000     0.057250000000     0.656480000000     0.0323445  
H188     H      0.525740000000     0.094100000000     0.624120000000     0.0530224  
H189     H      0.988410000000     0.123440000000     0.600580000000     0.0526257  
H190     H      0.992450000000     0.156730000000     0.564510000000     0.0343576  
H191     H      0.538160000000     0.209790000000     0.617780000000     0.0312444  
H192     H      0.534140000000     0.176290000000     0.654860000000     0.0531707  
H193     H      0.367260000000     0.832660000000     0.492860000000     0.0531747  
H194     H      0.405640000000     0.800750000000     0.487990000000     0.0323539  
H195     H      0.460240000000     0.858570000000     0.025690000000     0.0322104  
H196     H      0.422530000000     0.890650000000     0.030500000000     0.0533602  
H197     H      0.339120000000     0.861030000000     0.032780000000     0.052796   
H198     H      0.305120000000     0.898040000000     0.034840000000     0.0315665  
H199     H      0.361520000000     0.950710000000     0.492370000000     0.0337779  
H200     H      0.395360000000     0.914780000000     0.490480000000     0.053272   
H201     H      0.395040000000     0.603310000000     0.511930000000     0.0530549  
H202     H      0.363990000000     0.565210000000     0.510960000000     0.0329511  
H203     H      0.299650000000     0.615840000000     0.978430000000     0.0313626  
H204     H      0.330350000000     0.655310000000     0.980310000000     0.0520084  
H205     H      0.371480000000     0.676750000000     0.961480000000     0.0524998  
H206     H      0.408240000000     0.710880000000     0.962670000000     0.0313329  
H207     H      0.439460000000     0.675940000000     0.536980000000     0.031608   
H208     H      0.402620000000     0.643030000000     0.537340000000     0.0521821  
H209     H      0.133420000000     0.852030000000     0.466790000000     0.0512527  
H210     H      0.094450000000     0.821740000000     0.470780000000     0.0296743  
H211     H      0.118500000000     0.800400000000     0.052450000000     0.0315489  
H212     H      0.156740000000     0.832650000000     0.050180000000     0.0521413  
H213     H      0.141870000000     0.894940000000     0.981870000000     0.0522595  
H214     H      0.171520000000     0.933830000000     0.982590000000     0.033704   
H215     H      0.227600000000     0.892740000000     0.536590000000     0.0317637  
H216     H      0.198650000000     0.851990000000     0.535050000000     0.0513117  
H217     H      0.154750000000     0.674170000000     0.039170000000     0.0531742  
H218     H      0.118420000000     0.708960000000     0.041060000000     0.0322211  
H219     H      0.069750000000     0.662230000000     0.484510000000     0.033349   
H220     H      0.104930000000     0.627530000000     0.482790000000     0.0530633  
H221     H      0.122890000000     0.594170000000     0.521510000000     0.0533704  
H222     H      0.155060000000     0.556540000000     0.516440000000     0.0320926  
H223     H      0.219480000000     0.612600000000     0.994770000000     0.032491   
H224     H      0.187660000000     0.650720000000     0.000110000000     0.052972   
H225     H      0.414510000000     0.992160000000     0.391010000000     0.0520536  
H226     H      0.452740000000     0.995360000000     0.359960000000     0.0337383  
H227     H      0.399840000000     0.527780000000     0.297440000000     0.032232   
H228     H      0.360240000000     0.523350000000     0.327870000000     0.0517691  
H229     H      0.338870000000     0.541920000000     0.366860000000     0.0524695  
H230     H      0.305310000000     0.543270000000     0.403860000000     0.0329886  
H231     H      0.342440000000     0.972820000000     0.440430000000     0.0308753  
H232     H      0.374860000000     0.969610000000     0.403020000000     0.0513624  
H233     H      0.123720000000     0.540550000000     0.372400000000     0.0537813  
H234     H      0.082710000000     0.537120000000     0.343970000000     0.0318548  
H235     H      0.116980000000     0.967870000000     0.302470000000     0.0315206  
H236     H      0.158040000000     0.970300000000     0.331580000000     0.053166   
H237     H      0.156560000000     0.965510000000     0.390040000000     0.0535454  
H238     H      0.187720000000     0.968120000000     0.428950000000     0.0313708  
H239     H      0.214370000000     0.547550000000     0.403530000000     0.0318184  
H240     H      0.182340000000     0.545830000000     0.364740000000     0.0533553  
H241     H      0.101170000000     0.522420000000     0.126730000000     0.051818   
H242     H      0.065150000000     0.522140000000     0.160790000000     0.0315555  
H243     H      0.110240000000     0.963880000000     0.208620000000     0.0320654  
H244     H      0.146020000000     0.962140000000     0.173850000000     0.0523542  
H245     H      0.182830000000     0.982620000000     0.150930000000     0.052204   
H246     H      0.216030000000     0.980170000000     0.113650000000     0.0313234  
H247     H      0.151550000000     0.495500000000     0.055420000000     0.0326731  
H248     H      0.117840000000     0.496240000000     0.091550000000     0.0525185  
H249     H      0.333200000000     0.971760000000     0.154930000000     0.0533004  
H250     H      0.303710000000     0.968620000000     0.114440000000     0.0319729  
H251     H      0.346560000000     0.536020000000     0.078010000000     0.0320866  
H252     H      0.375530000000     0.540130000000     0.118590000000     0.0540241  
H253     H      0.366090000000     0.546180000000     0.178540000000     0.0534935  
H254     H      0.404080000000     0.547630000000     0.211700000000     0.0316218  
H255     H      0.431450000000     0.969060000000     0.184440000000     0.0313768  
H256     H      0.393360000000     0.966700000000     0.152160000000     0.0536848  
H257     H      0.467610000000     0.649010000000     0.339700000000     0.0523109  
H258     H      0.466080000000     0.611020000000     0.307410000000     0.0313745  
H259     H      0.043380000000     0.581600000000     0.338150000000     0.0309653  
H260     H      0.046700000000     0.619940000000     0.368780000000     0.0514226  
H261     H      0.026190000000     0.630070000000     0.409840000000     0.0522853  
H262     H      0.025450000000     0.661230000000     0.447410000000     0.033238   
H263     H      0.484220000000     0.721090000000     0.398110000000     0.0314795  
H264     H      0.485990000000     0.690240000000     0.358730000000     0.0514535  
H265     H      0.990570000000     0.912440000000     0.390540000000     0.0534399  
H266     H      0.993190000000     0.950560000000     0.359020000000     0.0337953  
H267     H      0.529650000000     0.898900000000     0.297950000000     0.0323773  
H268     H      0.526690000000     0.860050000000     0.329260000000     0.0531408  
H269     H      0.482610000000     0.833350000000     0.362630000000     0.0531876  
H270     H      0.482310000000     0.800310000000     0.400390000000     0.031734   
H271     H      0.038440000000     0.850970000000     0.445560000000     0.0333985  
H272     H      0.038500000000     0.884050000000     0.408860000000     0.0539608  
H273     H      0.053190000000     0.865670000000     0.180800000000     0.0521876  
H274     H      0.050290000000     0.901320000000     0.215530000000     0.0322371  
H275     H      0.476030000000     0.931490000000     0.178600000000     0.0316628  
H276     H      0.477790000000     0.895900000000     0.144440000000     0.0520793  
H277     H      0.534390000000     0.824900000000     0.158680000000     0.0519469  
H278     H      0.539370000000     0.795140000000     0.118970000000     0.0318369  
H279     H      0.010950000000     0.859310000000     0.066310000000     0.032273   
H280     H      0.006490000000     0.889460000000     0.105100000000     0.0529022  
H281     H      0.994200000000     0.650820000000     0.184100000000     0.0544083  
H282     H      0.988500000000     0.613190000000     0.216480000000     0.0316698  
H283     H      0.520010000000     0.557250000000     0.156480000000     0.0323735  
H284     H      0.525740000000     0.594100000000     0.124120000000     0.0530312  
H285     H      0.988410000000     0.623450000000     0.100580000000     0.0526421  
H286     H      0.992450000000     0.656730000000     0.064520000000     0.0343083  
H287     H      0.538170000000     0.709790000000     0.117780000000     0.0312352  
H288     H      0.534150000000     0.676290000000     0.154860000000     0.0531454  
H289     H      0.367260000000     0.832660000000     0.992860000000     0.0538811  
H290     H      0.405640000000     0.800750000000     0.987990000000     0.0321162  
H291     H      0.460240000000     0.858570000000     0.525690000000     0.0322711  
H292     H      0.422530000000     0.890650000000     0.530500000000     0.0533248  
H293     H      0.339120000000     0.861030000000     0.532770000000     0.0528637  
H294     H      0.305120000000     0.898040000000     0.534840000000     0.0315972  
H295     H      0.361520000000     0.950710000000     0.992370000000     0.0342246  
H296     H      0.395360000000     0.914780000000     0.990480000000     0.0536923  
H297     H      0.395040000000     0.603310000000     0.011930000000     0.0530867  
H298     H      0.363990000000     0.565210000000     0.010960000000     0.0329198  
H299     H      0.299650000000     0.615840000000     0.478430000000     0.0313489  
H300     H      0.330350000000     0.655310000000     0.480310000000     0.0519243  
H301     H      0.371480000000     0.676750000000     0.461480000000     0.0524442  
H302     H      0.408240000000     0.710880000000     0.462670000000     0.0313637  
H303     H      0.439460000000     0.675950000000     0.036980000000     0.0316173  
H304     H      0.402620000000     0.643030000000     0.037340000000     0.052223   
H305     H      0.133430000000     0.852030000000     0.966780000000     0.0511791  
H306     H      0.094450000000     0.821740000000     0.970780000000     0.0297146  
H307     H      0.118500000000     0.800400000000     0.552450000000     0.0315542  
H308     H      0.156750000000     0.832640000000     0.550180000000     0.0521527  
H309     H      0.141870000000     0.894940000000     0.481870000000     0.0522653  
H310     H      0.171510000000     0.933830000000     0.482590000000     0.0336514  
H311     H      0.227600000000     0.892740000000     0.036590000000     0.0317802  
H312     H      0.198650000000     0.851990000000     0.035060000000     0.051226   
H313     H      0.154750000000     0.674170000000     0.539180000000     0.0532237  
H314     H      0.118420000000     0.708960000000     0.541060000000     0.0322122  
H315     H      0.069750000000     0.662230000000     0.984510000000     0.0333798  
H316     H      0.104920000000     0.627530000000     0.982790000000     0.0530697  
H317     H      0.122890000000     0.594170000000     0.021510000000     0.0533022  
H318     H      0.155060000000     0.556540000000     0.016440000000     0.0320478  
H319     H      0.219480000000     0.612600000000     0.494770000000     0.0319859  
H320     H      0.187660000000     0.650720000000     0.500110000000     0.0531378  
H321     H      0.414510000000     0.992160000000     0.891010000000     0.0520868  
H322     H      0.452740000000     0.995360000000     0.859960000000     0.0337528  
H323     H      0.399840000000     0.527780000000     0.797440000000     0.0322299  
H324     H      0.360240000000     0.523350000000     0.827870000000     0.0517715  
H325     H      0.338870000000     0.541920000000     0.866860000000     0.0524728  
H326     H      0.305310000000     0.543270000000     0.903860000000     0.0329809  
H327     H      0.342440000000     0.972820000000     0.940430000000     0.030942   
H328     H      0.374860000000     0.969610000000     0.903020000000     0.0513912  
H329     H      0.123720000000     0.540550000000     0.872400000000     0.0538118  
H330     H      0.082710000000     0.537120000000     0.843970000000     0.0318636  
H331     H      0.116980000000     0.967870000000     0.802470000000     0.0315214  
H332     H      0.158040000000     0.970300000000     0.831580000000     0.0531665  
H333     H      0.156560000000     0.965510000000     0.890040000000     0.0535589  
H334     H      0.187720000000     0.968120000000     0.928940000000     0.0314108  
H335     H      0.214370000000     0.547550000000     0.903530000000     0.0318336  
H336     H      0.182340000000     0.545830000000     0.864740000000     0.0534014  
H337     H      0.101170000000     0.522420000000     0.626730000000     0.0517913  
H338     H      0.065150000000     0.522140000000     0.660790000000     0.031562   
H339     H      0.110240000000     0.963880000000     0.708620000000     0.032054   
H340     H      0.146020000000     0.962140000000     0.673850000000     0.0523721  
H341     H      0.182840000000     0.982620000000     0.650930000000     0.0522101  
H342     H      0.216030000000     0.980170000000     0.613650000000     0.0313123  
H343     H      0.151550000000     0.495500000000     0.555420000000     0.0327183  
H344     H      0.117840000000     0.496240000000     0.591550000000     0.052551   
H345     H      0.333200000000     0.971760000000     0.654930000000     0.0532982  
H346     H      0.303710000000     0.968620000000     0.614440000000     0.0319659  
H347     H      0.346560000000     0.536010000000     0.578010000000     0.0321152  
H348     H      0.375530000000     0.540130000000     0.618590000000     0.0540392  
H349     H      0.366090000000     0.546180000000     0.678540000000     0.0534684  
H350     H      0.404080000000     0.547630000000     0.711700000000     0.0316225  
H351     H      0.431450000000     0.969060000000     0.684440000000     0.0313771  
H352     H      0.393360000000     0.966700000000     0.652160000000     0.0536923  
H353     H      0.467610000000     0.649010000000     0.839700000000     0.0523151  
H354     H      0.466080000000     0.611020000000     0.807410000000     0.0313872  
H355     H      0.043380000000     0.581600000000     0.838150000000     0.0309707  
H356     H      0.046700000000     0.619930000000     0.868780000000     0.0514381  
H357     H      0.026190000000     0.630070000000     0.909840000000     0.052302   
H358     H      0.025450000000     0.661220000000     0.947420000000     0.0333066  
H359     H      0.484220000000     0.721090000000     0.898110000000     0.0314925  
H360     H      0.485990000000     0.690240000000     0.858730000000     0.0514579  
H361     H      0.990570000000     0.912440000000     0.890540000000     0.0534699  
H362     H      0.993190000000     0.950560000000     0.859020000000     0.0338325  
H363     H      0.529650000000     0.898900000000     0.797950000000     0.0323742  
H364     H      0.526690000000     0.860050000000     0.829260000000     0.0531443  
H365     H      0.482610000000     0.833350000000     0.862630000000     0.0531939  
H366     H      0.482310000000     0.800310000000     0.900390000000     0.0317397  
H367     H      0.038430000000     0.850970000000     0.945560000000     0.033466   
H368     H      0.038500000000     0.884050000000     0.908860000000     0.0539891  
H369     H      0.053190000000     0.865670000000     0.680800000000     0.0521896  
H370     H      0.050290000000     0.901310000000     0.715530000000     0.0322237  
H371     H      0.476030000000     0.931490000000     0.678600000000     0.031665   
H372     H      0.477790000000     0.895900000000     0.644440000000     0.0520861  
H373     H      0.534380000000     0.824900000000     0.658680000000     0.0519644  
H374     H      0.539360000000     0.795140000000     0.618970000000     0.0318128  
H375     H      0.010950000000     0.859310000000     0.566310000000     0.0323054  
H376     H      0.006490000000     0.889460000000     0.605100000000     0.0529045  
H377     H      0.994200000000     0.650820000000     0.684100000000     0.0544034  
H378     H      0.988500000000     0.613190000000     0.716480000000     0.0316668  
H379     H      0.520000000000     0.557250000000     0.656480000000     0.0323779  
H380     H      0.525740000000     0.594100000000     0.624120000000     0.0530596  
H381     H      0.988410000000     0.623440000000     0.600580000000     0.0526473  
H382     H      0.992450000000     0.656730000000     0.564510000000     0.0343502  
H383     H      0.538160000000     0.709790000000     0.617780000000     0.0312236  
H384     H      0.534140000000     0.676290000000     0.654860000000     0.0531777  
H385     H      0.867260000000     0.332660000000     0.492870000000     0.0532083  
H386     H      0.905640000000     0.300750000000     0.487990000000     0.0323415  
H387     H      0.960230000000     0.358570000000     0.025690000000     0.0323455  
H388     H      0.922530000000     0.390640000000     0.030500000000     0.053457   
H389     H      0.839120000000     0.361030000000     0.032780000000     0.0528597  
H390     H      0.805120000000     0.398040000000     0.034840000000     0.0315501  
H391     H      0.861520000000     0.450700000000     0.492360000000     0.033706   
H392     H      0.895350000000     0.414780000000     0.490480000000     0.0533543  
H393     H      0.895040000000     0.103300000000     0.511930000000     0.053125   
H394     H      0.863990000000     0.065200000000     0.510960000000     0.0329465  
H395     H      0.799660000000     0.115840000000     0.978430000000     0.031363   
H396     H      0.830350000000     0.155310000000     0.980310000000     0.0519993  
H397     H      0.871480000000     0.176750000000     0.961480000000     0.0525112  
H398     H      0.908240000000     0.210880000000     0.962670000000     0.0313885  
H399     H      0.939470000000     0.175940000000     0.536970000000     0.0317182  
H400     H      0.902630000000     0.143020000000     0.537340000000     0.0521704  
H401     H      0.633420000000     0.352030000000     0.466790000000     0.0512533  
H402     H      0.594440000000     0.321740000000     0.470780000000     0.0297087  
H403     H      0.618500000000     0.300400000000     0.052450000000     0.0315414  
H404     H      0.656740000000     0.332650000000     0.050180000000     0.0521389  
H405     H      0.641870000000     0.394940000000     0.981870000000     0.052261   
H406     H      0.671510000000     0.433830000000     0.982590000000     0.0336742  
H407     H      0.727600000000     0.392740000000     0.536590000000     0.0317678  
H408     H      0.698650000000     0.351990000000     0.535050000000     0.0513108  
H409     H      0.654750000000     0.174170000000     0.039170000000     0.0531886  
H410     H      0.618420000000     0.208960000000     0.041050000000     0.0322095  
H411     H      0.569740000000     0.162220000000     0.484510000000     0.0333655  
H412     H      0.604920000000     0.127520000000     0.482790000000     0.0530307  
H413     H      0.622890000000     0.094170000000     0.521510000000     0.0533467  
H414     H      0.655060000000     0.056540000000     0.516440000000     0.0320316  
H415     H      0.719470000000     0.112600000000     0.994770000000     0.0324838  
H416     H      0.687650000000     0.150720000000     0.000110000000     0.0529767  
H417     H      0.914500000000     0.492150000000     0.391010000000     0.0522982  
H418     H      0.952730000000     0.495360000000     0.359960000000     0.0331823  
H419     H      0.899850000000     0.027780000000     0.297440000000     0.0322561  
H420     H      0.860240000000     0.023360000000     0.327880000000     0.0516499  
H421     H      0.838870000000     0.041930000000     0.366860000000     0.0524484  
H422     H      0.805310000000     0.043270000000     0.403860000000     0.0329741  
H423     H      0.842440000000     0.472820000000     0.440430000000     0.030831   
H424     H      0.874850000000     0.469610000000     0.403010000000     0.0514046  
H425     H      0.623720000000     0.040550000000     0.372400000000     0.0537305  
H426     H      0.582720000000     0.037120000000     0.343960000000     0.0318491  
H427     H      0.616980000000     0.467870000000     0.302470000000     0.0315528  
H428     H      0.658040000000     0.470310000000     0.331580000000     0.0532113  
H429     H      0.656560000000     0.465510000000     0.390040000000     0.0535845  
H430     H      0.687710000000     0.468120000000     0.428940000000     0.0313696  
H431     H      0.714370000000     0.047550000000     0.403540000000     0.031858   
H432     H      0.682340000000     0.045830000000     0.364740000000     0.0532886  
H433     H      0.601170000000     0.022410000000     0.126730000000     0.0518867  
H434     H      0.565150000000     0.022140000000     0.160790000000     0.0315434  
H435     H      0.610230000000     0.463880000000     0.208620000000     0.0320855  
H436     H      0.646020000000     0.462140000000     0.173850000000     0.0522981  
H437     H      0.682830000000     0.482620000000     0.150930000000     0.0521167  
H438     H      0.716030000000     0.480170000000     0.113650000000     0.0312847  
H439     H      0.651550000000     0.995500000000     0.055420000000     0.0327748  
H440     H      0.617840000000     0.996240000000     0.091550000000     0.0526401  
H441     H      0.833200000000     0.471760000000     0.154930000000     0.0532784  
H442     H      0.803710000000     0.468620000000     0.114440000000     0.0320343  
H443     H      0.846560000000     0.036010000000     0.078010000000     0.0320621  
H444     H      0.875530000000     0.040130000000     0.118590000000     0.054024   
H445     H      0.866090000000     0.046180000000     0.178540000000     0.053421   
H446     H      0.904080000000     0.047630000000     0.211710000000     0.031662   
H447     H      0.931460000000     0.469070000000     0.184430000000     0.0314197  
H448     H      0.893360000000     0.466710000000     0.152150000000     0.0537998  
H449     H      0.967620000000     0.149020000000     0.339690000000     0.0522455  
H450     H      0.966090000000     0.111030000000     0.307410000000     0.0313695  
H451     H      0.543380000000     0.081600000000     0.338150000000     0.030947   
H452     H      0.546700000000     0.119930000000     0.368790000000     0.0514749  
H453     H      0.526180000000     0.130060000000     0.409850000000     0.0523637  
H454     H      0.525440000000     0.161220000000     0.447420000000     0.0332697  
H455     H      0.984220000000     0.221090000000     0.398110000000     0.0315007  
H456     H      0.985990000000     0.190250000000     0.358730000000     0.0514479  
H457     H      0.490570000000     0.412440000000     0.390540000000     0.0537667  
H458     H      0.493190000000     0.450560000000     0.359020000000     0.0326723  
H459     H      0.029650000000     0.398900000000     0.297940000000     0.0324184  
H460     H      0.026690000000     0.360050000000     0.329260000000     0.0528914  
H461     H      0.982610000000     0.333340000000     0.362620000000     0.0531877  
H462     H      0.982310000000     0.300310000000     0.400390000000     0.031772   
H463     H      0.538440000000     0.350970000000     0.445560000000     0.0333889  
H464     H      0.538500000000     0.384040000000     0.408860000000     0.0541093  
H465     H      0.553190000000     0.365660000000     0.180810000000     0.0522809  
H466     H      0.550280000000     0.401310000000     0.215530000000     0.0321842  
H467     H      0.976030000000     0.431490000000     0.178600000000     0.0316429  
H468     H      0.977790000000     0.395910000000     0.144440000000     0.0521005  
H469     H      0.034390000000     0.324910000000     0.158670000000     0.0519623  
H470     H      0.039370000000     0.295150000000     0.118970000000     0.0317684  
H471     H      0.510950000000     0.359310000000     0.066320000000     0.0323671  
H472     H      0.506480000000     0.389450000000     0.105100000000     0.0530722  
H473     H      0.494210000000     0.150820000000     0.184110000000     0.0531158  
H474     H      0.488510000000     0.113180000000     0.216480000000     0.0320897  
H475     H      0.020000000000     0.057260000000     0.156480000000     0.0321059  
H476     H      0.025730000000     0.094110000000     0.124110000000     0.0530775  
H477     H      0.488420000000     0.123440000000     0.100590000000     0.0530691  
H478     H      0.492460000000     0.156730000000     0.064520000000     0.0331963  
H479     H      0.038160000000     0.209790000000     0.117780000000     0.0313312  
H480     H      0.034130000000     0.176290000000     0.154860000000     0.0528309  
H481     H      0.867260000000     0.332660000000     0.992870000000     0.0539107  
H482     H      0.905640000000     0.300740000000     0.987990000000     0.0321342  
H483     H      0.960240000000     0.358570000000     0.525690000000     0.0324415  
H484     H      0.922530000000     0.390650000000     0.530500000000     0.0533733  
H485     H      0.839120000000     0.361030000000     0.532780000000     0.0529274  
H486     H      0.805120000000     0.398040000000     0.534840000000     0.031581   
H487     H      0.861520000000     0.450700000000     0.992370000000     0.0341613  
H488     H      0.895350000000     0.414780000000     0.990480000000     0.0537599  
H489     H      0.895040000000     0.103300000000     0.011930000000     0.0531345  
H490     H      0.863990000000     0.065210000000     0.010960000000     0.0329085  
H491     H      0.799660000000     0.115840000000     0.478430000000     0.0313387  
H492     H      0.830350000000     0.155310000000     0.480310000000     0.0519259  
H493     H      0.871480000000     0.176750000000     0.461480000000     0.0524565  
H494     H      0.908250000000     0.210880000000     0.462670000000     0.0314006  
H495     H      0.939470000000     0.175940000000     0.036980000000     0.0317269  
H496     H      0.902630000000     0.143020000000     0.037340000000     0.0522369  
H497     H      0.633430000000     0.352030000000     0.966780000000     0.0511803  
H498     H      0.594450000000     0.321740000000     0.970780000000     0.0297345  
H499     H      0.618500000000     0.300400000000     0.552450000000     0.0315538  
H500     H      0.656750000000     0.332640000000     0.550180000000     0.0521418  
H501     H      0.641870000000     0.394940000000     0.481870000000     0.0522653  
H502     H      0.671510000000     0.433830000000     0.482590000000     0.0336382  
H503     H      0.727600000000     0.392740000000     0.036590000000     0.0317816  
H504     H      0.698650000000     0.351990000000     0.035060000000     0.0512268  
H505     H      0.654750000000     0.174170000000     0.539170000000     0.0532237  
H506     H      0.618420000000     0.208960000000     0.541050000000     0.0322249  
H507     H      0.569740000000     0.162220000000     0.984510000000     0.0334342  
H508     H      0.604920000000     0.127520000000     0.982790000000     0.05306    
H509     H      0.622890000000     0.094170000000     0.021510000000     0.0532587  
H510     H      0.655060000000     0.056540000000     0.016440000000     0.0320179  
H511     H      0.719480000000     0.112600000000     0.494770000000     0.0320071  
H512     H      0.687650000000     0.150720000000     0.500110000000     0.0531327  
H513     H      0.914500000000     0.492150000000     0.891010000000     0.0523308  
H514     H      0.952730000000     0.495360000000     0.859960000000     0.0331975  
H515     H      0.899850000000     0.027780000000     0.797440000000     0.0322571  
H516     H      0.860240000000     0.023360000000     0.827880000000     0.0516365  
H517     H      0.838870000000     0.041930000000     0.866860000000     0.0524525  
H518     H      0.805310000000     0.043270000000     0.903860000000     0.0329806  
H519     H      0.842440000000     0.472820000000     0.940430000000     0.030891   
H520     H      0.874850000000     0.469610000000     0.903010000000     0.0514345  
H521     H      0.623720000000     0.040550000000     0.872400000000     0.0537643  
H522     H      0.582720000000     0.037120000000     0.843960000000     0.0318572  
H523     H      0.616980000000     0.467870000000     0.802470000000     0.0315525  
H524     H      0.658040000000     0.470310000000     0.831580000000     0.0532168  
H525     H      0.656560000000     0.465510000000     0.890040000000     0.0536008  
H526     H      0.687720000000     0.468120000000     0.928940000000     0.0314075  
H527     H      0.714370000000     0.047550000000     0.903540000000     0.0318579  
H528     H      0.682340000000     0.045830000000     0.864740000000     0.0533054  
H529     H      0.601170000000     0.022410000000     0.626730000000     0.0518618  
H530     H      0.565150000000     0.022140000000     0.660790000000     0.0315506  
H531     H      0.610240000000     0.463880000000     0.708620000000     0.0320722  
H532     H      0.646020000000     0.462140000000     0.673850000000     0.0523008  
H533     H      0.682830000000     0.482620000000     0.650930000000     0.0521608  
H534     H      0.716030000000     0.480170000000     0.613650000000     0.0312738  
H535     H      0.651550000000     0.995500000000     0.555420000000     0.0328124  
H536     H      0.617840000000     0.996240000000     0.591550000000     0.0526734  
H537     H      0.833200000000     0.471760000000     0.654930000000     0.0532758  
H538     H      0.803710000000     0.468620000000     0.614440000000     0.0320378  
H539     H      0.846560000000     0.036010000000     0.578010000000     0.0320832  
H540     H      0.875530000000     0.040130000000     0.618590000000     0.0540382  
H541     H      0.866090000000     0.046180000000     0.678540000000     0.0534187  
H542     H      0.904080000000     0.047630000000     0.711710000000     0.0316767  
H543     H      0.931460000000     0.469070000000     0.684430000000     0.0314295  
H544     H      0.893360000000     0.466710000000     0.652150000000     0.0538086  
H545     H      0.967620000000     0.149020000000     0.839690000000     0.052254   
H546     H      0.966090000000     0.111030000000     0.807410000000     0.031373   
H547     H      0.543380000000     0.081600000000     0.838150000000     0.0309539  
H548     H      0.546700000000     0.119930000000     0.868790000000     0.0514912  
H549     H      0.526180000000     0.130060000000     0.909850000000     0.0523833  
H550     H      0.525440000000     0.161220000000     0.947420000000     0.033325   
H551     H      0.984220000000     0.221090000000     0.898110000000     0.0314979  
H552     H      0.985990000000     0.190250000000     0.858730000000     0.0514739  
H553     H      0.490570000000     0.412440000000     0.890540000000     0.0538133  
H554     H      0.493190000000     0.450560000000     0.859020000000     0.0326964  
H555     H      0.029650000000     0.398900000000     0.797940000000     0.0324176  
H556     H      0.026690000000     0.360050000000     0.829260000000     0.0528914  
H557     H      0.982610000000     0.333340000000     0.862620000000     0.0531971  
H558     H      0.982310000000     0.300310000000     0.900390000000     0.0317773  
H559     H      0.538440000000     0.350970000000     0.945560000000     0.0334541  
H560     H      0.538500000000     0.384040000000     0.908870000000     0.0541331  
H561     H      0.553190000000     0.365660000000     0.680810000000     0.0522443  
H562     H      0.550280000000     0.401310000000     0.715530000000     0.0321886  
H563     H      0.976030000000     0.431490000000     0.678600000000     0.0316461  
H564     H      0.977790000000     0.395910000000     0.644440000000     0.0521032  
H565     H      0.034390000000     0.324910000000     0.658670000000     0.0519621  
H566     H      0.039370000000     0.295150000000     0.618970000000     0.0317678  
H567     H      0.510950000000     0.359310000000     0.566320000000     0.0324     
H568     H      0.506480000000     0.389450000000     0.605100000000     0.0530913  
H569     H      0.494210000000     0.150820000000     0.684100000000     0.0531314  
H570     H      0.488510000000     0.113180000000     0.716480000000     0.0320851  
H571     H      0.020000000000     0.057260000000     0.656480000000     0.0321241  
H572     H      0.025730000000     0.094110000000     0.624110000000     0.0530897  
H573     H      0.488420000000     0.123440000000     0.600580000000     0.0531085  
H574     H      0.492460000000     0.156720000000     0.564520000000     0.0332183  
H575     H      0.038150000000     0.209790000000     0.617780000000     0.0313273  
H576     H      0.034130000000     0.176290000000     0.654860000000     0.05283    
H577     H      0.867260000000     0.832660000000     0.492870000000     0.0532036  
H578     H      0.905640000000     0.800750000000     0.487990000000     0.0323459  
H579     H      0.960240000000     0.858570000000     0.025690000000     0.0323819  
H580     H      0.922530000000     0.890650000000     0.030500000000     0.0534384  
H581     H      0.839120000000     0.861030000000     0.032780000000     0.0528559  
H582     H      0.805120000000     0.898040000000     0.034840000000     0.0315428  
H583     H      0.861520000000     0.950700000000     0.492370000000     0.0337798  
H584     H      0.895360000000     0.914780000000     0.490480000000     0.0533398  
H585     H      0.895040000000     0.603300000000     0.511920000000     0.053167   
H586     H      0.863990000000     0.565200000000     0.510950000000     0.0329731  
H587     H      0.799660000000     0.615840000000     0.978430000000     0.0313747  
H588     H      0.830350000000     0.655310000000     0.980310000000     0.0519957  
H589     H      0.871480000000     0.676750000000     0.961480000000     0.0525134  
H590     H      0.908250000000     0.710880000000     0.962670000000     0.0313906  
H591     H      0.939470000000     0.675940000000     0.536970000000     0.0317135  
H592     H      0.902630000000     0.643020000000     0.537330000000     0.0522184  
H593     H      0.633420000000     0.852030000000     0.466790000000     0.0512588  
H594     H      0.594440000000     0.821740000000     0.470780000000     0.0297087  
H595     H      0.618500000000     0.800400000000     0.052450000000     0.0315462  
H596     H      0.656740000000     0.832650000000     0.050180000000     0.0521406  
H597     H      0.641870000000     0.894940000000     0.981870000000     0.05225    
H598     H      0.671510000000     0.933830000000     0.982590000000     0.0337077  
H599     H      0.727600000000     0.892740000000     0.536590000000     0.0317702  
H600     H      0.698650000000     0.851990000000     0.535050000000     0.0513103  
H601     H      0.654750000000     0.674170000000     0.039170000000     0.0531825  
H602     H      0.618420000000     0.708960000000     0.041050000000     0.0322206  
H603     H      0.569740000000     0.662220000000     0.484510000000     0.0333698  
H604     H      0.604920000000     0.627520000000     0.482790000000     0.0530489  
H605     H      0.622890000000     0.594170000000     0.521510000000     0.0533991  
H606     H      0.655060000000     0.556540000000     0.516440000000     0.0321076  
H607     H      0.719480000000     0.612600000000     0.994770000000     0.0324955  
H608     H      0.687650000000     0.650720000000     0.000110000000     0.0529715  
H609     H      0.914510000000     0.992160000000     0.391010000000     0.0521101  
H610     H      0.952740000000     0.995360000000     0.359960000000     0.0338413  
H611     H      0.899840000000     0.527780000000     0.297440000000     0.0322357  
H612     H      0.860240000000     0.523350000000     0.327870000000     0.0517804  
H613     H      0.838870000000     0.541930000000     0.366860000000     0.0524354  
H614     H      0.805310000000     0.543270000000     0.403860000000     0.0329831  
H615     H      0.842440000000     0.972820000000     0.440430000000     0.0308726  
H616     H      0.874860000000     0.969610000000     0.403010000000     0.0513937  
H617     H      0.623720000000     0.540550000000     0.372400000000     0.0537998  
H618     H      0.582710000000     0.537120000000     0.343960000000     0.0318964  
H619     H      0.616980000000     0.967870000000     0.302470000000     0.0315136  
H620     H      0.658040000000     0.970300000000     0.331580000000     0.0531747  
H621     H      0.656560000000     0.965510000000     0.390040000000     0.0535542  
H622     H      0.687720000000     0.968120000000     0.428940000000     0.031359   
H623     H      0.714370000000     0.547550000000     0.403540000000     0.0318255  
H624     H      0.682340000000     0.545830000000     0.364740000000     0.0533923  
H625     H      0.601170000000     0.522410000000     0.126720000000     0.0518523  
H626     H      0.565150000000     0.522140000000     0.160780000000     0.0315742  
H627     H      0.610240000000     0.963880000000     0.208620000000     0.0320485  
H628     H      0.646020000000     0.962140000000     0.173850000000     0.0523712  
H629     H      0.682830000000     0.982620000000     0.150930000000     0.052192   
H630     H      0.716030000000     0.980170000000     0.113650000000     0.0313302  
H631     H      0.651550000000     0.495500000000     0.055420000000     0.0326953  
H632     H      0.617840000000     0.496240000000     0.091550000000     0.0525225  
H633     H      0.833200000000     0.971760000000     0.154930000000     0.0533016  
H634     H      0.803710000000     0.968620000000     0.114440000000     0.0319762  
H635     H      0.846560000000     0.536010000000     0.078010000000     0.0320872  
H636     H      0.875530000000     0.540130000000     0.118590000000     0.0540792  
H637     H      0.866090000000     0.546180000000     0.178540000000     0.0535024  
H638     H      0.904080000000     0.547630000000     0.211710000000     0.0316496  
H639     H      0.931460000000     0.969070000000     0.184430000000     0.0314194  
H640     H      0.893360000000     0.966710000000     0.152150000000     0.0537712  
H641     H      0.967620000000     0.649020000000     0.339690000000     0.0522494  
H642     H      0.966090000000     0.611030000000     0.307410000000     0.0313799  
H643     H      0.543380000000     0.581600000000     0.338150000000     0.0309619  
H644     H      0.546700000000     0.619930000000     0.368790000000     0.0514845  
H645     H      0.526180000000     0.630060000000     0.409850000000     0.0523599  
H646     H      0.525440000000     0.661220000000     0.447420000000     0.0332802  
H647     H      0.984230000000     0.721090000000     0.398110000000     0.0314926  
H648     H      0.985990000000     0.690250000000     0.358730000000     0.05145    
H649     H      0.490570000000     0.912440000000     0.390550000000     0.0537495  
H650     H      0.493190000000     0.950560000000     0.359020000000     0.0327453  
H651     H      0.029640000000     0.898900000000     0.297940000000     0.0324263  
H652     H      0.026680000000     0.860050000000     0.329260000000     0.0529109  
H653     H      0.982610000000     0.833350000000     0.362620000000     0.0531886  
H654     H      0.982310000000     0.800310000000     0.400390000000     0.0317749  
H655     H      0.538440000000     0.850970000000     0.445560000000     0.0333949  
H656     H      0.538500000000     0.884050000000     0.408870000000     0.0540933  
H657     H      0.553190000000     0.865660000000     0.180810000000     0.0522883  
H658     H      0.550280000000     0.901310000000     0.215530000000     0.0321795  
H659     H      0.976030000000     0.931500000000     0.178600000000     0.0316787  
H660     H      0.977800000000     0.895910000000     0.144440000000     0.0521508  
H661     H      0.034390000000     0.824910000000     0.158670000000     0.0519606  
H662     H      0.039370000000     0.795150000000     0.118970000000     0.0317687  
H663     H      0.510950000000     0.859310000000     0.066320000000     0.0324087  
H664     H      0.506480000000     0.889450000000     0.105100000000     0.0530778  
H665     H      0.494210000000     0.650820000000     0.184110000000     0.053116   
H666     H      0.488510000000     0.613180000000     0.216480000000     0.0320894  
H667     H      0.020000000000     0.557260000000     0.156480000000     0.0321431  
H668     H      0.025730000000     0.594110000000     0.124110000000     0.0531046  
H669     H      0.488420000000     0.623440000000     0.100590000000     0.053085   
H670     H      0.492460000000     0.656730000000     0.064520000000     0.033206   
H671     H      0.038160000000     0.709790000000     0.117780000000     0.0313293  
H672     H      0.034130000000     0.676290000000     0.154860000000     0.0528328  
H673     H      0.867260000000     0.832660000000     0.992870000000     0.0539078  
H674     H      0.905640000000     0.800740000000     0.987990000000     0.0321384  
H675     H      0.960240000000     0.858570000000     0.525690000000     0.0324516  
H676     H      0.922530000000     0.890650000000     0.530500000000     0.0533968  
H677     H      0.839120000000     0.861030000000     0.532780000000     0.0528889  
H678     H      0.805120000000     0.898040000000     0.534840000000     0.0315856  
H679     H      0.861520000000     0.950700000000     0.992370000000     0.0342257  
H680     H      0.895360000000     0.914780000000     0.990480000000     0.0537601  
H681     H      0.895040000000     0.603300000000     0.011930000000     0.0531632  
H682     H      0.863990000000     0.565200000000     0.010950000000     0.0329525  
H683     H      0.799660000000     0.615840000000     0.478430000000     0.0313562  
H684     H      0.830350000000     0.655310000000     0.480310000000     0.0519172  
H685     H      0.871480000000     0.676750000000     0.461480000000     0.0524596  
H686     H      0.908250000000     0.710880000000     0.462670000000     0.031396   
H687     H      0.939470000000     0.675940000000     0.036980000000     0.0317292  
H688     H      0.902630000000     0.643020000000     0.037340000000     0.0522725  
H689     H      0.633430000000     0.852030000000     0.966780000000     0.0511871  
H690     H      0.594450000000     0.821740000000     0.970780000000     0.029734   
H691     H      0.618500000000     0.800400000000     0.552450000000     0.0315528  
H692     H      0.656750000000     0.832640000000     0.550180000000     0.0521414  
H693     H      0.641870000000     0.894940000000     0.481870000000     0.0522826  
H694     H      0.671510000000     0.933830000000     0.482590000000     0.0336622  
H695     H      0.727600000000     0.892740000000     0.036590000000     0.0317795  
H696     H      0.698650000000     0.851990000000     0.035060000000     0.0512234  
H697     H      0.654750000000     0.674170000000     0.539170000000     0.0532427  
H698     H      0.618420000000     0.708960000000     0.541050000000     0.0322187  
H699     H      0.569740000000     0.662220000000     0.984510000000     0.0334413  
H700     H      0.604920000000     0.627520000000     0.982790000000     0.0530712  
H701     H      0.622890000000     0.594170000000     0.021510000000     0.0533029  
H702     H      0.655060000000     0.556530000000     0.016440000000     0.0320903  
H703     H      0.719480000000     0.612600000000     0.494770000000     0.0320089  
H704     H      0.687650000000     0.650720000000     0.500110000000     0.053136   
H705     H      0.914510000000     0.992160000000     0.891010000000     0.0521435  
H706     H      0.952740000000     0.995360000000     0.859960000000     0.0338553  
H707     H      0.899840000000     0.527780000000     0.797440000000     0.0322344  
H708     H      0.860240000000     0.523350000000     0.827870000000     0.0517811  
H709     H      0.838870000000     0.541930000000     0.866860000000     0.0524415  
H710     H      0.805310000000     0.543270000000     0.903860000000     0.0329862  
H711     H      0.842440000000     0.972820000000     0.940430000000     0.0309371  
H712     H      0.874860000000     0.969610000000     0.903010000000     0.0514235  
H713     H      0.623720000000     0.540550000000     0.872400000000     0.0538292  
H714     H      0.582710000000     0.537120000000     0.843960000000     0.0319072  
H715     H      0.616980000000     0.967870000000     0.802470000000     0.0315108  
H716     H      0.658040000000     0.970300000000     0.831580000000     0.053186   
H717     H      0.656560000000     0.965510000000     0.890040000000     0.0535644  
H718     H      0.687720000000     0.968120000000     0.928940000000     0.0314141  
H719     H      0.714370000000     0.547550000000     0.903540000000     0.0318528  
H720     H      0.682340000000     0.545840000000     0.864740000000     0.0533603  
H721     H      0.601170000000     0.522410000000     0.626730000000     0.0519028  
H722     H      0.565150000000     0.522140000000     0.660780000000     0.0315715  
H723     H      0.610240000000     0.963880000000     0.708620000000     0.0320555  
H724     H      0.646020000000     0.962140000000     0.673850000000     0.0523656  
H725     H      0.682830000000     0.982620000000     0.650930000000     0.0521938  
H726     H      0.716030000000     0.980170000000     0.613650000000     0.0313179  
H727     H      0.651550000000     0.495500000000     0.555420000000     0.0327329  
H728     H      0.617840000000     0.496240000000     0.591550000000     0.0525733  
H729     H      0.833200000000     0.971760000000     0.654930000000     0.0533006  
H730     H      0.803710000000     0.968620000000     0.614440000000     0.031967   
H731     H      0.846560000000     0.536010000000     0.578010000000     0.0321141  
H732     H      0.875530000000     0.540130000000     0.618590000000     0.0540948  
H733     H      0.866090000000     0.546180000000     0.678540000000     0.0535018  
H734     H      0.904080000000     0.547630000000     0.711710000000     0.0316519  
H735     H      0.931460000000     0.969070000000     0.684430000000     0.03143    
H736     H      0.893360000000     0.966710000000     0.652150000000     0.053779   
H737     H      0.967620000000     0.649020000000     0.839690000000     0.0522549  
H738     H      0.966090000000     0.611030000000     0.807410000000     0.0313804  
H739     H      0.543380000000     0.581600000000     0.838150000000     0.0309549  
H740     H      0.546690000000     0.619930000000     0.868790000000     0.0515405  
H741     H      0.526180000000     0.630060000000     0.909850000000     0.0524143  
H742     H      0.525440000000     0.661220000000     0.947420000000     0.0333054  
H743     H      0.984220000000     0.721090000000     0.898110000000     0.0315038  
H744     H      0.985990000000     0.690250000000     0.858730000000     0.0514535  
H745     H      0.490570000000     0.912440000000     0.890550000000     0.0537894  
H746     H      0.493190000000     0.950560000000     0.859020000000     0.0327404  
H747     H      0.029640000000     0.898900000000     0.797940000000     0.0324051  
H748     H      0.026680000000     0.860050000000     0.829260000000     0.0529209  
H749     H      0.982610000000     0.833340000000     0.862620000000     0.0531826  
H750     H      0.982310000000     0.800310000000     0.900390000000     0.0317837  
H751     H      0.538440000000     0.850970000000     0.945560000000     0.0334684  
H752     H      0.538500000000     0.884050000000     0.908870000000     0.0541144  
H753     H      0.553190000000     0.865660000000     0.680810000000     0.0522459  
H754     H      0.550280000000     0.901310000000     0.715530000000     0.0321913  
H755     H      0.976030000000     0.931500000000     0.678600000000     0.0316809  
H756     H      0.977800000000     0.895910000000     0.644440000000     0.0521555  
H757     H      0.034390000000     0.824910000000     0.658670000000     0.0519586  
H758     H      0.039370000000     0.795150000000     0.618970000000     0.0317692  
H759     H      0.510950000000     0.859310000000     0.566320000000     0.0324357  
H760     H      0.506490000000     0.889450000000     0.605100000000     0.0531232  
H761     H      0.494210000000     0.650820000000     0.684100000000     0.053136   
H762     H      0.488510000000     0.613180000000     0.716480000000     0.032084   
H763     H      0.020000000000     0.557260000000     0.656480000000     0.0321618  
H764     H      0.025730000000     0.594100000000     0.624110000000     0.0531025  
H765     H      0.488420000000     0.623440000000     0.600580000000     0.0531185  
H766     H      0.492460000000     0.656720000000     0.564520000000     0.0332341  
H767     H      0.038150000000     0.709790000000     0.617780000000     0.0313267  
H768     H      0.034130000000     0.676290000000     0.654860000000     0.0528315  
N1       N      0.435890000000     0.327470000000     0.505970000000    -0.189874   
N2       N      0.330930000000     0.427250000000     0.014270000000    -0.18884    
N3       N      0.329360000000     0.087690000000     0.494910000000    -0.189626   
N4       N      0.427140000000     0.195140000000     0.499220000000    -0.189873   
N5       N      0.103010000000     0.309730000000     0.012300000000    -0.188894   
N6       N      0.201650000000     0.416470000000     0.010000000000    -0.187571   
N7       N      0.091150000000     0.187940000000     0.013460000000    -0.189021   
N8       N      0.189520000000     0.081690000000     0.504750000000    -0.19008    
N9       N      0.429260000000     0.012080000000     0.326420000000    -0.188562   
N10      N      0.322160000000     0.008860000000     0.425390000000    -0.188943   
N11      N      0.096590000000     0.501960000000     0.321390000000    -0.188949   
N12      N      0.202800000000     0.008340000000     0.419510000000    -0.188714   
N13      N      0.084810000000     0.492650000000     0.186970000000    -0.189964   
N14      N      0.186340000000     0.488010000000     0.081860000000    -0.19009    
N15      N      0.323210000000     0.501780000000     0.093010000000    -0.188622   
N16      N      0.420950000000     0.008820000000     0.200010000000    -0.188109   
N17      N      0.504000000000     0.092980000000     0.321260000000    -0.18938    
N18      N      0.504600000000     0.193530000000     0.425720000000    -0.188335   
N19      N      0.012230000000     0.427740000000     0.326340000000    -0.188335   
N20      N      0.509780000000     0.323450000000     0.426050000000    -0.188573   
N21      N      0.013620000000     0.419680000000     0.198930000000    -0.188349   
N22      N      0.025330000000     0.324880000000     0.089690000000    -0.189373   
N23      N      0.503400000000     0.082380000000     0.188770000000    -0.189855   
N24      N      0.016060000000     0.185600000000     0.088280000000    -0.18922    
N25      N      0.435890000000     0.327470000000     0.005970000000    -0.19031    
N26      N      0.330930000000     0.427250000000     0.514260000000    -0.188856   
N27      N      0.329360000000     0.087690000000     0.994910000000    -0.18948    
N28      N      0.427130000000     0.195140000000     0.999220000000    -0.189623   
N29      N      0.103010000000     0.309730000000     0.512300000000    -0.188671   
N30      N      0.201650000000     0.416470000000     0.510000000000    -0.187447   
N31      N      0.091150000000     0.187950000000     0.513460000000    -0.188856   
N32      N      0.189520000000     0.081690000000     0.004750000000    -0.189924   
N33      N      0.429260000000     0.012080000000     0.826420000000    -0.188562   
N34      N      0.322160000000     0.008860000000     0.925390000000    -0.18891    
N35      N      0.096590000000     0.501960000000     0.821390000000    -0.18895    
N36      N      0.202800000000     0.008350000000     0.919510000000    -0.188706   
N37      N      0.084810000000     0.492650000000     0.686970000000    -0.189912   
N38      N      0.186340000000     0.488010000000     0.581860000000    -0.190118   
N39      N      0.323210000000     0.501780000000     0.593010000000    -0.188652   
N40      N      0.420950000000     0.008820000000     0.700010000000    -0.188119   
N41      N      0.504000000000     0.092980000000     0.821260000000    -0.189378   
N42      N      0.504600000000     0.193530000000     0.925720000000    -0.188336   
N43      N      0.012230000000     0.427740000000     0.826340000000    -0.188334   
N44      N      0.509780000000     0.323450000000     0.926050000000    -0.188555   
N45      N      0.013620000000     0.419680000000     0.698930000000    -0.188334   
N46      N      0.025330000000     0.324880000000     0.589690000000    -0.189373   
N47      N      0.503400000000     0.082380000000     0.688770000000    -0.189858   
N48      N      0.016060000000     0.185600000000     0.588280000000    -0.189232   
N49      N      0.435890000000     0.827480000000     0.505970000000    -0.189832   
N50      N      0.330930000000     0.927250000000     0.014270000000    -0.188794   
N51      N      0.329370000000     0.587690000000     0.494900000000    -0.189537   
N52      N      0.427140000000     0.695140000000     0.499220000000    -0.189808   
N53      N      0.103010000000     0.809730000000     0.012300000000    -0.188902   
N54      N      0.201650000000     0.916470000000     0.010000000000    -0.187558   
N55      N      0.091150000000     0.687940000000     0.013460000000    -0.189019   
N56      N      0.189520000000     0.581700000000     0.504750000000    -0.190084   
N57      N      0.429260000000     0.512070000000     0.326420000000    -0.188756   
N58      N      0.322160000000     0.508850000000     0.425390000000    -0.188789   
N59      N      0.096590000000     0.001960000000     0.321390000000    -0.1894     
N60      N      0.202800000000     0.508350000000     0.419510000000    -0.188657   
N61      N      0.084810000000     0.992650000000     0.186970000000    -0.189805   
N62      N      0.186340000000     0.988010000000     0.081860000000    -0.190114   
N63      N      0.323210000000     0.001780000000     0.093020000000    -0.189115   
N64      N      0.420950000000     0.508820000000     0.200010000000    -0.188038   
N65      N      0.504000000000     0.592980000000     0.321260000000    -0.189381   
N66      N      0.504600000000     0.693530000000     0.425720000000    -0.188333   
N67      N      0.012230000000     0.927750000000     0.326340000000    -0.188411   
N68      N      0.509780000000     0.823450000000     0.426050000000    -0.188547   
N69      N      0.013620000000     0.919680000000     0.198930000000    -0.188331   
N70      N      0.025330000000     0.824880000000     0.089690000000    -0.189375   
N71      N      0.503400000000     0.582380000000     0.188770000000    -0.189863   
N72      N      0.016060000000     0.685600000000     0.088280000000    -0.18921    
N73      N      0.435890000000     0.827470000000     0.005970000000    -0.19031    
N74      N      0.330930000000     0.927250000000     0.514260000000    -0.18882    
N75      N      0.329370000000     0.587690000000     0.994900000000    -0.189426   
N76      N      0.427130000000     0.695140000000     0.999220000000    -0.189673   
N77      N      0.103010000000     0.809730000000     0.512300000000    -0.188682   
N78      N      0.201650000000     0.916470000000     0.510000000000    -0.187499   
N79      N      0.091150000000     0.687950000000     0.513460000000    -0.188907   
N80      N      0.189520000000     0.581690000000     0.004750000000    -0.189987   
N81      N      0.429260000000     0.512070000000     0.826420000000    -0.188757   
N82      N      0.322160000000     0.508850000000     0.925380000000    -0.188713   
N83      N      0.096590000000     0.001960000000     0.821390000000    -0.189389   
N84      N      0.202800000000     0.508350000000     0.919510000000    -0.188643   
N85      N      0.084810000000     0.992650000000     0.686980000000    -0.189854   
N86      N      0.186340000000     0.988010000000     0.581860000000    -0.190168   
N87      N      0.323210000000     0.001780000000     0.593020000000    -0.189122   
N88      N      0.420950000000     0.508820000000     0.700010000000    -0.188      
N89      N      0.504000000000     0.592970000000     0.821260000000    -0.189435   
N90      N      0.504600000000     0.693520000000     0.925720000000    -0.18827    
N91      N      0.012230000000     0.927740000000     0.826340000000    -0.188333   
N92      N      0.509780000000     0.823450000000     0.926050000000    -0.188523   
N93      N      0.013620000000     0.919680000000     0.698930000000    -0.188332   
N94      N      0.025330000000     0.824880000000     0.589690000000    -0.189375   
N95      N      0.503400000000     0.582380000000     0.688770000000    -0.189869   
N96      N      0.016060000000     0.685600000000     0.588280000000    -0.189218   
N97      N      0.935890000000     0.327470000000     0.505970000000    -0.189914   
N98      N      0.830930000000     0.427240000000     0.014270000000    -0.188788   
N99      N      0.829370000000     0.087690000000     0.494910000000    -0.189554   
N100     N      0.927140000000     0.195140000000     0.499220000000    -0.189726   
N101     N      0.603010000000     0.309730000000     0.012300000000    -0.188905   
N102     N      0.701650000000     0.416470000000     0.010000000000    -0.187567   
N103     N      0.591150000000     0.187940000000     0.013460000000    -0.189034   
N104     N      0.689520000000     0.081690000000     0.504740000000    -0.19008    
N105     N      0.929260000000     0.012080000000     0.326420000000    -0.188537   
N106     N      0.822160000000     0.008860000000     0.425390000000    -0.188968   
N107     N      0.596590000000     0.501960000000     0.321390000000    -0.188902   
N108     N      0.702800000000     0.008340000000     0.419510000000    -0.188713   
N109     N      0.584810000000     0.492650000000     0.186970000000    -0.189974   
N110     N      0.686340000000     0.488010000000     0.081860000000    -0.190064   
N111     N      0.823210000000     0.501780000000     0.093010000000    -0.188655   
N112     N      0.920950000000     0.008820000000     0.200010000000    -0.188132   
N113     N      0.004000000000     0.092980000000     0.321260000000    -0.189658   
N114     N      0.004610000000     0.193530000000     0.425710000000    -0.188489   
N115     N      0.512230000000     0.427740000000     0.326340000000    -0.188764   
N116     N      0.009780000000     0.323450000000     0.426050000000    -0.188765   
N117     N      0.513620000000     0.419680000000     0.198940000000    -0.18823    
N118     N      0.525320000000     0.324880000000     0.089690000000    -0.18933    
N119     N      0.003400000000     0.082380000000     0.188770000000    -0.191096   
N120     N      0.516070000000     0.185600000000     0.088290000000    -0.189691   
N121     N      0.935890000000     0.327470000000     0.005970000000    -0.190262   
N122     N      0.830930000000     0.427240000000     0.514260000000    -0.188823   
N123     N      0.829370000000     0.087690000000     0.994910000000    -0.189403   
N124     N      0.927140000000     0.195140000000     0.999220000000    -0.189594   
N125     N      0.603010000000     0.309730000000     0.512300000000    -0.188672   
N126     N      0.701650000000     0.416470000000     0.510000000000    -0.187476   
N127     N      0.591150000000     0.187940000000     0.513460000000    -0.188812   
N128     N      0.689520000000     0.081690000000     0.004740000000    -0.18989    
N129     N      0.929260000000     0.012080000000     0.826420000000    -0.188535   
N130     N      0.822160000000     0.008860000000     0.925390000000    -0.188951   
N131     N      0.596590000000     0.501960000000     0.821390000000    -0.188901   
N132     N      0.702800000000     0.008350000000     0.919510000000    -0.188706   
N133     N      0.584810000000     0.492650000000     0.686970000000    -0.189979   
N134     N      0.686340000000     0.488010000000     0.581860000000    -0.190119   
N135     N      0.823210000000     0.501780000000     0.593010000000    -0.188645   
N136     N      0.920960000000     0.008820000000     0.700010000000    -0.188171   
N137     N      0.004000000000     0.092980000000     0.821260000000    -0.189654   
N138     N      0.004610000000     0.193530000000     0.925710000000    -0.188505   
N139     N      0.512230000000     0.427740000000     0.826340000000    -0.188752   
N140     N      0.009780000000     0.323450000000     0.926050000000    -0.188754   
N141     N      0.513620000000     0.419680000000     0.698940000000    -0.188223   
N142     N      0.525320000000     0.324880000000     0.589690000000    -0.18933    
N143     N      0.003390000000     0.082380000000     0.688770000000    -0.191092   
N144     N      0.516070000000     0.185600000000     0.588280000000    -0.189726   
N145     N      0.935890000000     0.827470000000     0.505970000000    -0.189898   
N146     N      0.830930000000     0.927240000000     0.014270000000    -0.188795   
N147     N      0.829370000000     0.587680000000     0.494900000000    -0.189629   
N148     N      0.927140000000     0.695140000000     0.499220000000    -0.189733   
N149     N      0.603010000000     0.809730000000     0.012300000000    -0.188901   
N150     N      0.701650000000     0.916470000000     0.010000000000    -0.187555   
N151     N      0.591150000000     0.687940000000     0.013460000000    -0.189007   
N152     N      0.689520000000     0.581690000000     0.504740000000    -0.190094   
N153     N      0.929260000000     0.512070000000     0.326420000000    -0.188753   
N154     N      0.822160000000     0.508850000000     0.425380000000    -0.188723   
N155     N      0.596600000000     0.001960000000     0.321390000000    -0.189369   
N156     N      0.702800000000     0.508350000000     0.419510000000    -0.188655   
N157     N      0.584810000000     0.992650000000     0.186970000000    -0.189918   
N158     N      0.686340000000     0.988010000000     0.081860000000    -0.190061   
N159     N      0.823210000000     0.001780000000     0.093020000000    -0.18912    
N160     N      0.920950000000     0.508820000000     0.200010000000    -0.188018   
N161     N      0.004000000000     0.592980000000     0.321260000000    -0.189596   
N162     N      0.004610000000     0.693530000000     0.425710000000    -0.18852    
N163     N      0.512230000000     0.927740000000     0.326340000000    -0.188702   
N164     N      0.009780000000     0.823450000000     0.426050000000    -0.18876    
N165     N      0.513620000000     0.919680000000     0.198940000000    -0.188227   
N166     N      0.525320000000     0.824880000000     0.089690000000    -0.189286   
N167     N      0.003400000000     0.582380000000     0.188770000000    -0.191099   
N168     N      0.516070000000     0.685600000000     0.088290000000    -0.189672   
N169     N      0.935890000000     0.827470000000     0.005970000000    -0.190212   
N170     N      0.830930000000     0.927240000000     0.514260000000    -0.188811   
N171     N      0.829370000000     0.587680000000     0.994900000000    -0.189473   
N172     N      0.927140000000     0.695140000000     0.999220000000    -0.189606   
N173     N      0.603010000000     0.809730000000     0.512300000000    -0.188672   
N174     N      0.701650000000     0.916470000000     0.510000000000    -0.187487   
N175     N      0.591150000000     0.687940000000     0.513460000000    -0.188831   
N176     N      0.689520000000     0.581690000000     0.004740000000    -0.189922   
N177     N      0.929260000000     0.512070000000     0.826420000000    -0.188753   
N178     N      0.822160000000     0.508850000000     0.925380000000    -0.188734   
N179     N      0.596600000000     0.001960000000     0.821390000000    -0.189373   
N180     N      0.702800000000     0.508350000000     0.919510000000    -0.188636   
N181     N      0.584810000000     0.992650000000     0.686970000000    -0.189866   
N182     N      0.686340000000     0.988010000000     0.581860000000    -0.190162   
N183     N      0.823210000000     0.001780000000     0.593020000000    -0.189135   
N184     N      0.920950000000     0.508820000000     0.700010000000    -0.188001   
N185     N      0.004000000000     0.592980000000     0.821260000000    -0.189595   
N186     N      0.004610000000     0.693530000000     0.925710000000    -0.188501   
N187     N      0.512230000000     0.927740000000     0.826340000000    -0.188736   
N188     N      0.009780000000     0.823450000000     0.926050000000    -0.188738   
N189     N      0.513620000000     0.919680000000     0.698940000000    -0.188216   
N190     N      0.525320000000     0.824880000000     0.589700000000    -0.189241   
N191     N      0.003390000000     0.582380000000     0.688770000000    -0.191092   
N192     N      0.516070000000     0.685600000000     0.588290000000    -0.189673   
O1       O      0.506100000000     0.036870000000     0.198840000000    -0.36396    
O2       O      0.051130000000     0.512740000000     0.314350000000    -0.365784   
O3       O      0.483770000000     0.067930000000     0.286610000000    -0.357137   
O4       O      0.066770000000     0.479920000000     0.228630000000    -0.357351   
O5       O      0.016060000000     0.048750000000     0.312800000000    -0.366561   
O6       O      0.040300000000     0.002670000000     0.199100000000    -0.362225   
O7       O      0.071130000000     0.482850000000     0.286300000000    -0.360691   
O8       O      0.488620000000     0.065070000000     0.230130000000    -0.361766   
O9       O      0.499470000000     0.463040000000     0.208620000000    -0.371745   
O10      O      0.475530000000     0.507190000000     0.318180000000    -0.372243   
O11      O      0.447270000000     0.030410000000     0.233150000000    -0.359181   
O12      O      0.028860000000     0.447600000000     0.286890000000    -0.370522   
O13      O      0.007960000000     0.473580000000     0.318070000000    -0.371879   
O14      O      0.465090000000     0.995630000000     0.209810000000    -0.374161   
O15      O      0.032920000000     0.444890000000     0.234040000000    -0.354027   
O16      O      0.449430000000     0.027290000000     0.286430000000    -0.368182   
O17      O      0.017140000000     0.014430000000     0.258250000000    -0.590188   
O18      O      0.008920000000     0.197210000000     0.043560000000    -0.366771   
O19      O      0.481900000000     0.317230000000     0.510250000000    -0.364439   
O20      O      0.035900000000     0.283360000000     0.070340000000    -0.360779   
O21      O      0.451510000000     0.231520000000     0.481360000000    -0.354428   
O22      O      0.519960000000     0.316710000000     0.043670000000    -0.36567    
O23      O      0.471430000000     0.204290000000     0.011990000000    -0.368971   
O24      O      0.454250000000     0.287700000000     0.488980000000    -0.363199   
O25      O      0.032930000000     0.225710000000     0.069890000000    -0.358344   
O26      O      0.012950000000     0.201500000000     0.471090000000    -0.373753   
O27      O      0.058050000000     0.303010000000     0.500070000000    -0.381146   
O28      O      0.070950000000     0.226170000000     0.032760000000    -0.361947   
O29      O      0.491320000000     0.285960000000     0.448190000000    -0.362636   
O30      O      0.520710000000     0.313070000000     0.470390000000    -0.372956   
O31      O      0.047060000000     0.200690000000     0.003380000000    -0.376739   
O32      O      0.489860000000     0.232890000000     0.447430000000    -0.35972    
O33      O      0.074940000000     0.278910000000     0.034890000000    -0.359358   
O34      O      0.504600000000     0.258160000000     0.017000000000    -0.591797   
O35      O      0.320130000000     0.471900000000     0.007020000000    -0.371215   
O36      O      0.211480000000     0.994850000000     0.463490000000    -0.379782   
O37      O      0.237370000000     0.441800000000     0.028590000000    -0.358711   
O38      O      0.286290000000     0.029330000000     0.448620000000    -0.363202   
O39      O      0.207980000000     0.461540000000     0.499570000000    -0.366909   
O40      O      0.313540000000     0.500030000000     0.470600000000    -0.372253   
O41      O      0.234470000000     0.030560000000     0.447070000000    -0.361342   
O42      O      0.289910000000     0.446020000000     0.029540000000    -0.362339   
O43      O      0.320480000000     0.043040000000     0.005290000000    -0.368415   
O44      O      0.197500000000     0.995600000000     0.036970000000    -0.362386   
O45      O      0.287770000000     0.481850000000     0.068650000000    -0.359346   
O46      O      0.231320000000     0.064690000000     0.490790000000    -0.367842   
O47      O      0.199040000000     0.035750000000     0.505300000000    -0.365654   
O48      O      0.315240000000     0.511670000000     0.047650000000    -0.366223   
O49      O      0.287920000000     0.067210000000     0.484090000000    -0.358645   
O50      O      0.230100000000     0.480100000000     0.065210000000    -0.361232   
O51      O      0.259010000000     0.512760000000     0.515920000000    -0.590269   
O52      O      0.506100000000     0.036870000000     0.698840000000    -0.363958   
O53      O      0.051130000000     0.512740000000     0.814350000000    -0.36578    
O54      O      0.483770000000     0.067930000000     0.786610000000    -0.35714    
O55      O      0.066770000000     0.479920000000     0.728630000000    -0.357481   
O56      O      0.016060000000     0.048750000000     0.812800000000    -0.366557   
O57      O      0.040300000000     0.002670000000     0.699100000000    -0.362251   
O58      O      0.071130000000     0.482850000000     0.786300000000    -0.360691   
O59      O      0.488620000000     0.065070000000     0.730130000000    -0.361768   
O60      O      0.499470000000     0.463040000000     0.708620000000    -0.371729   
O61      O      0.475530000000     0.507190000000     0.818180000000    -0.372237   
O62      O      0.447270000000     0.030410000000     0.733150000000    -0.359183   
O63      O      0.028860000000     0.447600000000     0.786890000000    -0.370524   
O64      O      0.007960000000     0.473580000000     0.818070000000    -0.371875   
O65      O      0.465090000000     0.995630000000     0.709810000000    -0.37416    
O66      O      0.032920000000     0.444890000000     0.734040000000    -0.354023   
O67      O      0.449430000000     0.027290000000     0.786430000000    -0.368183   
O68      O      0.017140000000     0.014430000000     0.758250000000    -0.590191   
O69      O      0.008920000000     0.197210000000     0.543560000000    -0.366844   
O70      O      0.481890000000     0.317230000000     0.010250000000    -0.364354   
O71      O      0.035900000000     0.283360000000     0.570340000000    -0.360787   
O72      O      0.451510000000     0.231520000000     0.981370000000    -0.354508   
O73      O      0.519960000000     0.316710000000     0.543670000000    -0.365683   
O74      O      0.471430000000     0.204290000000     0.511980000000    -0.368589   
O75      O      0.454250000000     0.287700000000     0.988980000000    -0.362867   
O76      O      0.032930000000     0.225710000000     0.569890000000    -0.358281   
O77      O      0.012940000000     0.201500000000     0.971090000000    -0.373555   
O78      O      0.058050000000     0.303010000000     0.000070000000    -0.381311   
O79      O      0.070950000000     0.226170000000     0.532760000000    -0.361937   
O80      O      0.491320000000     0.285960000000     0.948190000000    -0.362622   
O81      O      0.520710000000     0.313070000000     0.970390000000    -0.372647   
O82      O      0.047060000000     0.200690000000     0.503380000000    -0.376578   
O83      O      0.489860000000     0.232890000000     0.947430000000    -0.359726   
O84      O      0.074940000000     0.278910000000     0.534890000000    -0.359337   
O85      O      0.504600000000     0.258160000000     0.517000000000    -0.591704   
O86      O      0.320130000000     0.471900000000     0.507020000000    -0.371087   
O87      O      0.211480000000     0.994850000000     0.963490000000    -0.379529   
O88      O      0.237370000000     0.441800000000     0.528590000000    -0.358818   
O89      O      0.286290000000     0.029330000000     0.948610000000    -0.363106   
O90      O      0.207980000000     0.461540000000     0.999570000000    -0.366226   
O91      O      0.313540000000     0.500030000000     0.970600000000    -0.371933   
O92      O      0.234470000000     0.030560000000     0.947070000000    -0.361311   
O93      O      0.289910000000     0.446020000000     0.529540000000    -0.362329   
O94      O      0.320480000000     0.043040000000     0.505290000000    -0.367965   
O95      O      0.197500000000     0.995600000000     0.536970000000    -0.362185   
O96      O      0.287770000000     0.481850000000     0.568650000000    -0.359426   
O97      O      0.231320000000     0.064690000000     0.990790000000    -0.367376   
O98      O      0.199040000000     0.035750000000     0.005300000000    -0.365567   
O99      O      0.315240000000     0.511670000000     0.547660000000    -0.36632    
O100     O      0.287920000000     0.067210000000     0.984090000000    -0.358745   
O101     O      0.230100000000     0.480100000000     0.565200000000    -0.361349   
O102     O      0.259010000000     0.512760000000     0.015920000000    -0.590353   
O103     O      0.506100000000     0.536870000000     0.198840000000    -0.364005   
O104     O      0.051130000000     0.012740000000     0.314350000000    -0.366236   
O105     O      0.483770000000     0.567930000000     0.286610000000    -0.357348   
O106     O      0.066770000000     0.979920000000     0.228630000000    -0.357559   
O107     O      0.016060000000     0.548750000000     0.312800000000    -0.366723   
O108     O      0.040300000000     0.502670000000     0.199100000000    -0.361849   
O109     O      0.071140000000     0.982840000000     0.286300000000    -0.360668   
O110     O      0.488620000000     0.565070000000     0.230130000000    -0.361871   
O111     O      0.499470000000     0.963040000000     0.208620000000    -0.37153    
O112     O      0.475530000000     0.007200000000     0.318180000000    -0.372621   
O113     O      0.447270000000     0.530410000000     0.233150000000    -0.359292   
O114     O      0.028860000000     0.947600000000     0.286890000000    -0.370548   
O115     O      0.007960000000     0.973580000000     0.318070000000    -0.371625   
O116     O      0.465090000000     0.495630000000     0.209810000000    -0.374792   
O117     O      0.032920000000     0.944890000000     0.234040000000    -0.354016   
O118     O      0.449430000000     0.527290000000     0.286420000000    -0.368022   
O119     O      0.017140000000     0.514430000000     0.258250000000    -0.590094   
O120     O      0.008920000000     0.697210000000     0.043560000000    -0.366707   
O121     O      0.481900000000     0.817230000000     0.510250000000    -0.364414   
O122     O      0.035900000000     0.783360000000     0.070340000000    -0.36084    
O123     O      0.451510000000     0.731520000000     0.481360000000    -0.354372   
O124     O      0.519960000000     0.816710000000     0.043670000000    -0.365668   
O125     O      0.471430000000     0.704290000000     0.011990000000    -0.368979   
O126     O      0.454250000000     0.787700000000     0.488980000000    -0.363181   
O127     O      0.032930000000     0.725720000000     0.069890000000    -0.358184   
O128     O      0.012950000000     0.701500000000     0.471090000000    -0.373798   
O129     O      0.058050000000     0.803010000000     0.500070000000    -0.381158   
O130     O      0.070950000000     0.726170000000     0.032760000000    -0.361895   
O131     O      0.491320000000     0.785960000000     0.448190000000    -0.362579   
O132     O      0.520710000000     0.813070000000     0.470400000000    -0.372886   
O133     O      0.047060000000     0.700690000000     0.003380000000    -0.376736   
O134     O      0.489860000000     0.732890000000     0.447430000000    -0.359722   
O135     O      0.074940000000     0.778910000000     0.034890000000    -0.359417   
O136     O      0.504600000000     0.758160000000     0.017000000000    -0.591807   
O137     O      0.320130000000     0.971900000000     0.007020000000    -0.370833   
O138     O      0.211480000000     0.494850000000     0.463490000000    -0.380306   
O139     O      0.237370000000     0.941800000000     0.028590000000    -0.358725   
O140     O      0.286290000000     0.529330000000     0.448610000000    -0.363222   
O141     O      0.207980000000     0.961540000000     0.499580000000    -0.366822   
O142     O      0.313540000000     0.000030000000     0.470610000000    -0.372494   
O143     O      0.234470000000     0.530560000000     0.447070000000    -0.361398   
O144     O      0.289910000000     0.946020000000     0.029540000000    -0.362329   
O145     O      0.320480000000     0.543040000000     0.005290000000    -0.368312   
O146     O      0.197500000000     0.495600000000     0.036960000000    -0.362525   
O147     O      0.287770000000     0.981850000000     0.068660000000    -0.359575   
O148     O      0.231320000000     0.564690000000     0.490790000000    -0.367804   
O149     O      0.199040000000     0.535750000000     0.505300000000    -0.365442   
O150     O      0.315240000000     0.011670000000     0.047660000000    -0.366795   
O151     O      0.287920000000     0.567210000000     0.484090000000    -0.358613   
O152     O      0.230100000000     0.980110000000     0.065210000000    -0.361363   
O153     O      0.259010000000     0.012760000000     0.515920000000    -0.590377   
O154     O      0.506100000000     0.536870000000     0.698840000000    -0.364008   
O155     O      0.051130000000     0.012740000000     0.814350000000    -0.366229   
O156     O      0.483770000000     0.567930000000     0.786610000000    -0.357363   
O157     O      0.066770000000     0.979920000000     0.728630000000    -0.35758    
O158     O      0.016060000000     0.548750000000     0.812800000000    -0.366719   
O159     O      0.040300000000     0.502670000000     0.699100000000    -0.361836   
O160     O      0.071140000000     0.982840000000     0.786300000000    -0.360666   
O161     O      0.488620000000     0.565070000000     0.730130000000    -0.361877   
O162     O      0.499470000000     0.963040000000     0.708620000000    -0.371527   
O163     O      0.475530000000     0.007200000000     0.818180000000    -0.372617   
O164     O      0.447270000000     0.530410000000     0.733150000000    -0.359252   
O165     O      0.028860000000     0.947600000000     0.786890000000    -0.370518   
O166     O      0.007960000000     0.973580000000     0.818070000000    -0.371593   
O167     O      0.465090000000     0.495620000000     0.709810000000    -0.374643   
O168     O      0.032920000000     0.944890000000     0.734040000000    -0.354016   
O169     O      0.449430000000     0.527290000000     0.786420000000    -0.368024   
O170     O      0.017140000000     0.514430000000     0.758250000000    -0.5901     
O171     O      0.008920000000     0.697210000000     0.543560000000    -0.366746   
O172     O      0.481890000000     0.817230000000     0.010250000000    -0.364353   
O173     O      0.035900000000     0.783360000000     0.570340000000    -0.360864   
O174     O      0.451510000000     0.731520000000     0.981370000000    -0.35451    
O175     O      0.519960000000     0.816710000000     0.543670000000    -0.36566    
O176     O      0.471440000000     0.704290000000     0.511980000000    -0.368526   
O177     O      0.454250000000     0.787700000000     0.988980000000    -0.362866   
O178     O      0.032930000000     0.725720000000     0.569890000000    -0.358206   
O179     O      0.012940000000     0.701500000000     0.971090000000    -0.373558   
O180     O      0.058050000000     0.803010000000     0.000070000000    -0.381314   
O181     O      0.070950000000     0.726170000000     0.532760000000    -0.361963   
O182     O      0.491320000000     0.785960000000     0.948190000000    -0.362568   
O183     O      0.520710000000     0.813070000000     0.970400000000    -0.372578   
O184     O      0.047070000000     0.700690000000     0.503380000000    -0.376657   
O185     O      0.489860000000     0.732890000000     0.947430000000    -0.359651   
O186     O      0.074940000000     0.778910000000     0.534890000000    -0.35941    
O187     O      0.504600000000     0.758160000000     0.517000000000    -0.591716   
O188     O      0.320130000000     0.971900000000     0.507020000000    -0.370706   
O189     O      0.211480000000     0.494850000000     0.963490000000    -0.380056   
O190     O      0.237370000000     0.941800000000     0.528590000000    -0.358879   
O191     O      0.286290000000     0.529330000000     0.948610000000    -0.363189   
O192     O      0.207980000000     0.961540000000     0.999570000000    -0.366019   
O193     O      0.313540000000     0.000030000000     0.970610000000    -0.372187   
O194     O      0.234470000000     0.530560000000     0.947070000000    -0.361377   
O195     O      0.289910000000     0.946020000000     0.529540000000    -0.362305   
O196     O      0.320480000000     0.543040000000     0.505290000000    -0.367862   
O197     O      0.197500000000     0.495600000000     0.536960000000    -0.362541   
O198     O      0.287770000000     0.981850000000     0.568650000000    -0.359568   
O199     O      0.231320000000     0.564690000000     0.990790000000    -0.367379   
O200     O      0.199040000000     0.535750000000     0.005300000000    -0.36538    
O201     O      0.315240000000     0.011670000000     0.547660000000    -0.366806   
O202     O      0.287920000000     0.567210000000     0.984090000000    -0.358715   
O203     O      0.230100000000     0.980110000000     0.565210000000    -0.361318   
O204     O      0.259010000000     0.012760000000     0.015920000000    -0.590433   
O205     O      0.006100000000     0.036870000000     0.198840000000    -0.364608   
O206     O      0.551130000000     0.512740000000     0.314350000000    -0.365788   
O207     O      0.983770000000     0.067930000000     0.286610000000    -0.356579   
O208     O      0.566770000000     0.479920000000     0.228630000000    -0.357407   
O209     O      0.516060000000     0.048750000000     0.312800000000    -0.366773   
O210     O      0.540300000000     0.002660000000     0.199100000000    -0.362384   
O211     O      0.571140000000     0.482840000000     0.286300000000    -0.360532   
O212     O      0.988620000000     0.065080000000     0.230130000000    -0.362017   
O213     O      0.999470000000     0.463040000000     0.208610000000    -0.370727   
O214     O      0.975530000000     0.507200000000     0.318180000000    -0.37182    
O215     O      0.947270000000     0.030410000000     0.233150000000    -0.35919    
O216     O      0.528860000000     0.447600000000     0.286890000000    -0.370578   
O217     O      0.507960000000     0.473580000000     0.318070000000    -0.37171    
O218     O      0.965090000000     0.995630000000     0.209810000000    -0.373788   
O219     O      0.532920000000     0.444890000000     0.234050000000    -0.354189   
O220     O      0.949430000000     0.027290000000     0.286430000000    -0.368166   
O221     O      0.517140000000     0.014430000000     0.258250000000    -0.590025   
O222     O      0.508920000000     0.197210000000     0.043560000000    -0.366631   
O223     O      0.981900000000     0.317230000000     0.510250000000    -0.363775   
O224     O      0.535900000000     0.283350000000     0.070340000000    -0.360625   
O225     O      0.951520000000     0.231520000000     0.481360000000    -0.35445    
O226     O      0.019960000000     0.316710000000     0.043670000000    -0.365832   
O227     O      0.971440000000     0.204290000000     0.011980000000    -0.368593   
O228     O      0.954250000000     0.287700000000     0.488980000000    -0.363166   
O229     O      0.532930000000     0.225710000000     0.069890000000    -0.358187   
O230     O      0.512940000000     0.201500000000     0.471090000000    -0.374087   
O231     O      0.558050000000     0.303010000000     0.500070000000    -0.381197   
O232     O      0.570950000000     0.226170000000     0.032760000000    -0.361967   
O233     O      0.991320000000     0.285960000000     0.448190000000    -0.362028   
O234     O      0.020710000000     0.313070000000     0.470390000000    -0.372865   
O235     O      0.547060000000     0.200690000000     0.003380000000    -0.376765   
O236     O      0.989860000000     0.232890000000     0.447430000000    -0.359063   
O237     O      0.574940000000     0.278910000000     0.034890000000    -0.359379   
O238     O      0.004600000000     0.258160000000     0.017000000000    -0.592061   
O239     O      0.820120000000     0.471900000000     0.007020000000    -0.371306   
O240     O      0.711480000000     0.994850000000     0.463490000000    -0.379778   
O241     O      0.737370000000     0.441800000000     0.028590000000    -0.358704   
O242     O      0.786290000000     0.029330000000     0.448620000000    -0.363206   
O243     O      0.707980000000     0.461540000000     0.499570000000    -0.366911   
O244     O      0.813540000000     0.500030000000     0.470600000000    -0.37221    
O245     O      0.734470000000     0.030560000000     0.447070000000    -0.361347   
O246     O      0.789910000000     0.446010000000     0.029540000000    -0.362229   
O247     O      0.820480000000     0.043040000000     0.005290000000    -0.368295   
O248     O      0.697500000000     0.995600000000     0.036960000000    -0.362226   
O249     O      0.787770000000     0.481850000000     0.068650000000    -0.359353   
O250     O      0.731320000000     0.064690000000     0.490790000000    -0.367851   
O251     O      0.699040000000     0.035750000000     0.505300000000    -0.365662   
O252     O      0.815240000000     0.511670000000     0.047650000000    -0.36624    
O253     O      0.787920000000     0.067210000000     0.484090000000    -0.358614   
O254     O      0.730100000000     0.480100000000     0.065210000000    -0.361222   
O255     O      0.759010000000     0.512760000000     0.515920000000    -0.590279   
O256     O      0.006100000000     0.036870000000     0.698840000000    -0.364612   
O257     O      0.551130000000     0.512740000000     0.814350000000    -0.365767   
O258     O      0.983770000000     0.067930000000     0.786610000000    -0.35658    
O259     O      0.566770000000     0.479920000000     0.728630000000    -0.357399   
O260     O      0.516060000000     0.048750000000     0.812800000000    -0.366769   
O261     O      0.540300000000     0.002660000000     0.699100000000    -0.36237    
O262     O      0.571140000000     0.482840000000     0.786300000000    -0.360528   
O263     O      0.988620000000     0.065080000000     0.730130000000    -0.36202    
O264     O      0.999470000000     0.463040000000     0.708610000000    -0.370724   
O265     O      0.975530000000     0.507200000000     0.818180000000    -0.371816   
O266     O      0.947270000000     0.030410000000     0.733150000000    -0.35922    
O267     O      0.528860000000     0.447600000000     0.786890000000    -0.370587   
O268     O      0.507960000000     0.473580000000     0.818070000000    -0.371789   
O269     O      0.965090000000     0.995630000000     0.709810000000    -0.373813   
O270     O      0.532920000000     0.444890000000     0.734050000000    -0.354182   
O271     O      0.949430000000     0.027290000000     0.786430000000    -0.368166   
O272     O      0.517140000000     0.014430000000     0.758250000000    -0.59003    
O273     O      0.508920000000     0.197210000000     0.543560000000    -0.366682   
O274     O      0.981900000000     0.317230000000     0.010250000000    -0.363736   
O275     O      0.535900000000     0.283350000000     0.570340000000    -0.36062    
O276     O      0.951510000000     0.231520000000     0.981360000000    -0.35448    
O277     O      0.019960000000     0.316710000000     0.543670000000    -0.365853   
O278     O      0.971440000000     0.204290000000     0.511980000000    -0.368172   
O279     O      0.954250000000     0.287700000000     0.988980000000    -0.362779   
O280     O      0.532930000000     0.225710000000     0.569900000000    -0.358124   
O281     O      0.512940000000     0.201500000000     0.971090000000    -0.373802   
O282     O      0.558050000000     0.303010000000     0.000070000000    -0.381351   
O283     O      0.570950000000     0.226170000000     0.532760000000    -0.361943   
O284     O      0.991320000000     0.285960000000     0.948190000000    -0.362006   
O285     O      0.020710000000     0.313070000000     0.970390000000    -0.372559   
O286     O      0.547060000000     0.200690000000     0.503380000000    -0.376604   
O287     O      0.989860000000     0.232890000000     0.947430000000    -0.35909    
O288     O      0.574940000000     0.278910000000     0.534890000000    -0.359349   
O289     O      0.004600000000     0.258160000000     0.517000000000    -0.591962   
O290     O      0.820120000000     0.471900000000     0.507020000000    -0.371178   
O291     O      0.711480000000     0.994850000000     0.963490000000    -0.379533   
O292     O      0.737370000000     0.441800000000     0.528590000000    -0.358811   
O293     O      0.786290000000     0.029330000000     0.948620000000    -0.363201   
O294     O      0.707980000000     0.461540000000     0.999570000000    -0.366224   
O295     O      0.813530000000     0.500030000000     0.970600000000    -0.372041   
O296     O      0.734470000000     0.030560000000     0.947070000000    -0.361326   
O297     O      0.789910000000     0.446010000000     0.529540000000    -0.362213   
O298     O      0.820480000000     0.043040000000     0.505290000000    -0.367856   
O299     O      0.697500000000     0.995600000000     0.536970000000    -0.362178   
O300     O      0.787770000000     0.481840000000     0.568650000000    -0.359398   
O301     O      0.731320000000     0.064690000000     0.990790000000    -0.367394   
O302     O      0.699040000000     0.035750000000     0.005300000000    -0.365568   
O303     O      0.815240000000     0.511670000000     0.547660000000    -0.366237   
O304     O      0.787920000000     0.067210000000     0.984090000000    -0.35871    
O305     O      0.730100000000     0.480100000000     0.565200000000    -0.361342   
O306     O      0.759010000000     0.512760000000     0.015920000000    -0.590363   
O307     O      0.006100000000     0.536870000000     0.198840000000    -0.364637   
O308     O      0.551140000000     0.012740000000     0.314350000000    -0.366307   
O309     O      0.983770000000     0.567930000000     0.286610000000    -0.356633   
O310     O      0.566770000000     0.979920000000     0.228630000000    -0.357494   
O311     O      0.516060000000     0.548750000000     0.312800000000    -0.366767   
O312     O      0.540300000000     0.502660000000     0.199100000000    -0.361993   
O313     O      0.571140000000     0.982840000000     0.286300000000    -0.360725   
O314     O      0.988620000000     0.565080000000     0.230130000000    -0.362029   
O315     O      0.999470000000     0.963040000000     0.208610000000    -0.370512   
O316     O      0.975530000000     0.007200000000     0.318180000000    -0.372126   
O317     O      0.947270000000     0.530410000000     0.233150000000    -0.359289   
O318     O      0.528860000000     0.947600000000     0.286890000000    -0.37058    
O319     O      0.507960000000     0.973580000000     0.318070000000    -0.371439   
O320     O      0.965090000000     0.495630000000     0.209810000000    -0.374413   
O321     O      0.532920000000     0.944890000000     0.234050000000    -0.354196   
O322     O      0.949430000000     0.527290000000     0.286420000000    -0.368027   
O323     O      0.517140000000     0.514430000000     0.258250000000    -0.589916   
O324     O      0.508920000000     0.697210000000     0.043560000000    -0.366628   
O325     O      0.981900000000     0.817230000000     0.510250000000    -0.363778   
O326     O      0.535900000000     0.783350000000     0.070340000000    -0.360616   
O327     O      0.951520000000     0.731520000000     0.481360000000    -0.354464   
O328     O      0.019960000000     0.816710000000     0.043670000000    -0.365837   
O329     O      0.971440000000     0.704290000000     0.011980000000    -0.368595   
O330     O      0.954250000000     0.787700000000     0.488980000000    -0.363171   
O331     O      0.532930000000     0.725710000000     0.069900000000    -0.35809    
O332     O      0.512940000000     0.701500000000     0.471090000000    -0.374088   
O333     O      0.558050000000     0.803010000000     0.500070000000    -0.381197   
O334     O      0.570950000000     0.726170000000     0.032760000000    -0.361968   
O335     O      0.991320000000     0.785960000000     0.448190000000    -0.362017   
O336     O      0.020710000000     0.813070000000     0.470390000000    -0.372861   
O337     O      0.547060000000     0.700690000000     0.003380000000    -0.376763   
O338     O      0.989870000000     0.732890000000     0.447430000000    -0.359152   
O339     O      0.574940000000     0.778910000000     0.034890000000    -0.359369   
O340     O      0.004600000000     0.758160000000     0.017000000000    -0.592078   
O341     O      0.820120000000     0.971900000000     0.007020000000    -0.371017   
O342     O      0.711480000000     0.494850000000     0.463490000000    -0.380303   
O343     O      0.737370000000     0.941800000000     0.028590000000    -0.358714   
O344     O      0.786290000000     0.529330000000     0.448610000000    -0.363188   
O345     O      0.707980000000     0.961540000000     0.499580000000    -0.366819   
O346     O      0.813540000000     0.000030000000     0.470610000000    -0.372506   
O347     O      0.734470000000     0.530560000000     0.447070000000    -0.361405   
O348     O      0.789910000000     0.946020000000     0.029540000000    -0.362334   
O349     O      0.820480000000     0.543040000000     0.005290000000    -0.368351   
O350     O      0.697500000000     0.495600000000     0.036960000000    -0.362516   
O351     O      0.787770000000     0.981850000000     0.068660000000    -0.359574   
O352     O      0.731320000000     0.564690000000     0.490790000000    -0.367842   
O353     O      0.699040000000     0.535750000000     0.505300000000    -0.365614   
O354     O      0.815240000000     0.011670000000     0.047660000000    -0.366783   
O355     O      0.787920000000     0.567210000000     0.484090000000    -0.35867    
O356     O      0.730100000000     0.980100000000     0.065210000000    -0.361278   
O357     O      0.759010000000     0.012760000000     0.515920000000    -0.590352   
O358     O      0.006100000000     0.536870000000     0.698840000000    -0.364641   
O359     O      0.551140000000     0.012740000000     0.814350000000    -0.366303   
O360     O      0.983770000000     0.567930000000     0.786610000000    -0.356635   
O361     O      0.566770000000     0.979920000000     0.728630000000    -0.357625   
O362     O      0.516060000000     0.548750000000     0.812800000000    -0.366683   
O363     O      0.540300000000     0.502660000000     0.699100000000    -0.361984   
O364     O      0.571140000000     0.982840000000     0.786300000000    -0.360725   
O365     O      0.988620000000     0.565080000000     0.730130000000    -0.362032   
O366     O      0.999470000000     0.963040000000     0.708610000000    -0.370512   
O367     O      0.975530000000     0.007200000000     0.818180000000    -0.372123   
O368     O      0.947270000000     0.530410000000     0.733150000000    -0.359288   
O369     O      0.528860000000     0.947600000000     0.786890000000    -0.370583   
O370     O      0.507960000000     0.973580000000     0.818070000000    -0.371439   
O371     O      0.965090000000     0.495630000000     0.709810000000    -0.374409   
O372     O      0.532920000000     0.944890000000     0.734050000000    -0.354193   
O373     O      0.949430000000     0.527290000000     0.786420000000    -0.368027   
O374     O      0.517140000000     0.514430000000     0.758250000000    -0.589894   
O375     O      0.508920000000     0.697210000000     0.543560000000    -0.366656   
O376     O      0.981900000000     0.817230000000     0.010250000000    -0.363716   
O377     O      0.535900000000     0.783350000000     0.570340000000    -0.36059    
O378     O      0.951520000000     0.731520000000     0.981360000000    -0.354555   
O379     O      0.019960000000     0.816710000000     0.543670000000    -0.365869   
O380     O      0.971440000000     0.704290000000     0.511980000000    -0.368181   
O381     O      0.954250000000     0.787700000000     0.988980000000    -0.362916   
O382     O      0.532930000000     0.725710000000     0.569900000000    -0.358096   
O383     O      0.512940000000     0.701500000000     0.971100000000    -0.373702   
O384     O      0.558050000000     0.803010000000     0.000070000000    -0.38135    
O385     O      0.570950000000     0.726170000000     0.532760000000    -0.361947   
O386     O      0.991320000000     0.785960000000     0.948190000000    -0.362013   
O387     O      0.020710000000     0.813070000000     0.970390000000    -0.372548   
O388     O      0.547060000000     0.700690000000     0.503380000000    -0.376614   
O389     O      0.989860000000     0.732890000000     0.947430000000    -0.359089   
O390     O      0.574940000000     0.778910000000     0.534890000000    -0.359349   
O391     O      0.004610000000     0.758160000000     0.517000000000    -0.592056   
O392     O      0.820120000000     0.971900000000     0.507020000000    -0.37089    
O393     O      0.711480000000     0.494850000000     0.963490000000    -0.380056   
O394     O      0.737370000000     0.941790000000     0.528590000000    -0.35879    
O395     O      0.786290000000     0.529330000000     0.948610000000    -0.36321    
O396     O      0.707980000000     0.961540000000     0.999570000000    -0.366016   
O397     O      0.813540000000     0.000030000000     0.970610000000    -0.372201   
O398     O      0.734470000000     0.530560000000     0.947070000000    -0.36138    
O399     O      0.789910000000     0.946020000000     0.529540000000    -0.362306   
O400     O      0.820480000000     0.543040000000     0.505280000000    -0.36797    
O401     O      0.697500000000     0.495600000000     0.536960000000    -0.362533   
O402     O      0.787770000000     0.981850000000     0.568650000000    -0.359659   
O403     O      0.731320000000     0.564690000000     0.990790000000    -0.367388   
O404     O      0.699040000000     0.535750000000     0.005300000000    -0.36553    
O405     O      0.815240000000     0.011670000000     0.547660000000    -0.366811   
O406     O      0.787920000000     0.567210000000     0.984090000000    -0.358744   
O407     O      0.730100000000     0.980100000000     0.565210000000    -0.361352   
O408     O      0.759010000000     0.012760000000     0.015920000000    -0.59044    


