data_structure

_audit_creation_method RASPA-1.0
_audit_creation_date 2023-6-4
_audit_author_name 'Poobodin Mano'

_cell_length_a    31.4152
_cell_length_b    32.1063
_cell_length_c    32.454
_cell_angle_alpha 87.1369
_cell_angle_beta  93.8233
_cell_angle_gamma 120.436
_cell_volume      28155.3

_symmetry_cell_setting          triclinic
_symmetry_space_group_name_Hall 'P 1'
_symmetry_space_group_name_H-M  'P 1'
_symmetry_Int_Tables_number     1

_symmetry_equiv_pos_as_xyz 'x,y,z'

loop_
_atom_site_label
_atom_site_type_symbol
_atom_site_fract_x
_atom_site_fract_y
_atom_site_fract_z
_atom_site_charge
C1       C      0.069470000000     0.147840000000     0.001060000000     0.455101   
C2       C      0.961650000000     0.922910000000     0.039180000000     0.466411   
C3       C      0.049590000000     0.025320000000     0.945700000000     0.474536   
C4       C      0.954880000000     0.030460000000     0.100760000000     0.459152   
C5       C      0.074170000000     0.067450000000     0.145140000000     0.475191   
C6       C      0.131200000000     0.995410000000     0.007650000000     0.408498   
C7       C      0.151510000000     0.140350000000     0.074940000000     0.462531   
C8       C      0.051700000000     0.944050000000     0.106960000000     0.386733   
C9       C      0.050280000000     0.037650000000     0.442810000000     0.48345    
C10      C      0.013230000000     0.118960000000     0.619580000000     0.411102   
C11      C      0.951500000000     0.069150000000     0.516580000000     0.490558   
C12      C      0.131640000000     0.135040000000     0.510540000000     0.453243   
C13      C      0.151670000000     0.059400000000     0.582910000000     0.432951   
C14      C      0.914510000000     0.955790000000     0.563140000000     0.484708   
C15      C      0.020720000000     0.932900000000     0.508010000000     0.486754   
C16      C      0.045200000000     0.029100000000     0.648170000000     0.47501    
C17      C      0.957360000000     0.457390000000     0.999550000000     0.471506   
C18      C      0.072860000000     0.676330000000     0.009380000000     0.4725     
C19      C      0.954080000000     0.534240000000     0.076720000000     0.470368   
C20      C      0.075540000000     0.573760000000     0.930970000000     0.462953   
C21      C      0.161710000000     0.563410000000     0.013440000000     0.475246   
C22      C      0.062200000000     0.552670000000     0.136920000000     0.453137   
C23      C      0.057980000000     0.441160000000     0.021860000000     0.398701   
C24      C      0.154290000000     0.659250000000     0.080370000000     0.476536   
C25      C      0.935130000000     0.404950000000     0.497330000000     0.4757     
C26      C      0.022530000000     0.637610000000     0.518880000000     0.405158   
C27      C      0.914260000000     0.514490000000     0.531950000000     0.50282    
C28      C      0.016780000000     0.499480000000     0.437350000000     0.44036    
C29      C      0.123850000000     0.530740000000     0.503940000000     0.429947   
C30      C      0.985800000000     0.521470000000     0.632590000000     0.481977   
C31      C      0.005920000000     0.411860000000     0.593250000000     0.483587   
C32      C      0.119980000000     0.620670000000     0.562160000000     0.465669   
C33      C      0.458970000000     0.035010000000     0.003420000000     0.45823    
C34      C      0.565130000000     0.945120000000     0.021750000000     0.46007    
C35      C      0.550390000000     0.064400000000     0.926590000000     0.506695   
C36      C      0.462660000000     0.955750000000     0.094950000000     0.380027   
C37      C      0.570810000000     0.024880000000     0.144230000000     0.374712   
C38      C      0.661440000000     0.147610000000     0.982200000000     0.487689   
C39      C      0.534990000000     0.124560000000     0.077910000000     0.449608   
C40      C      0.667780000000     0.052570000000     0.059640000000     0.46475    
C41      C      0.422630000000     0.029830000000     0.490770000000     0.478835   
C42      C      0.556250000000     0.954620000000     0.487600000000     0.386747   
C43      C      0.511390000000     0.032600000000     0.433090000000     0.479932   
C44      C      0.415880000000     0.940720000000     0.581280000000     0.384646   
C45      C      0.530300000000     0.035390000000     0.630840000000     0.494479   
C46      C      0.622490000000     0.130110000000     0.474850000000     0.473714   
C47      C      0.492660000000     0.120780000000     0.563300000000     0.45278    
C48      C      0.635660000000     0.042680000000     0.557140000000     0.464755   
C49      C      0.457920000000     0.418720000000     0.003020000000     0.461046   
C50      C      0.549590000000     0.631940000000     0.036950000000     0.456626   
C51      C      0.459880000000     0.549110000000     0.077740000000     0.454985   
C52      C      0.543940000000     0.504090000000     0.950270000000     0.450946   
C53      C      0.649310000000     0.537150000000     0.023110000000     0.44771    
C54      C      0.513680000000     0.495780000000     0.151970000000     0.444273   
C55      C      0.513710000000     0.413350000000     0.098660000000     0.448441   
C56      C      0.653500000000     0.622330000000     0.071210000000     0.474064   
C57      C      0.436950000000     0.429080000000     0.494850000000     0.381955   
C58      C      0.552980000000     0.657210000000     0.508560000000     0.493211   
C59      C      0.416440000000     0.520400000000     0.571220000000     0.517042   
C60      C      0.536870000000     0.549720000000     0.450390000000     0.454421   
C61      C      0.614010000000     0.522150000000     0.515670000000     0.457872   
C62      C      0.518600000000     0.533360000000     0.647310000000     0.469037   
C63      C      0.483890000000     0.415840000000     0.584790000000     0.369992   
C64      C      0.623850000000     0.652380000000     0.596880000000     0.504201   
C65      C      0.542560000000     0.567510000000     0.716550000000     0.102836   
C66      C      0.521140000000     0.486390000000     0.705380000000     0.0736461  
C67      C      0.545680000000     0.559650000000     0.759360000000    -0.096241   
C68      C      0.509630000000     0.522420000000     0.844180000000    -0.0859667  
C69      C      0.524620000000     0.478100000000     0.747950000000    -0.086897   
C70      C      0.533720000000     0.505630000000     0.821170000000     0.0326449  
C71      C      0.535430000000     0.514450000000     0.775560000000     0.0400159  
C72      C      0.511590000000     0.519100000000     0.887050000000     0.0707762  
C73      C      0.558030000000     0.479710000000     0.885970000000     0.0700836  
C74      C      0.556750000000     0.482470000000     0.842410000000    -0.0838699  
C75      C      0.551320000000     0.500000000000     0.220190000000     0.0970417  
C76      C      0.472620000000     0.493900000000     0.211410000000     0.0700415  
C77      C      0.554060000000     0.510820000000     0.262000000000    -0.0952109  
C78      C      0.566380000000     0.562820000000     0.341210000000    -0.0852798  
C79      C      0.474520000000     0.504490000000     0.253120000000    -0.0878001  
C80      C      0.520770000000     0.528370000000     0.322830000000     0.0338132  
C81      C      0.516440000000     0.514930000000     0.278640000000     0.0378851  
C82      C      0.570830000000     0.571620000000     0.383620000000     0.0737357  
C83      C      0.485680000000     0.515060000000     0.389820000000     0.0747541  
C84      C      0.479930000000     0.505480000000     0.347630000000    -0.0846811  
C85      C      0.511970000000     0.873980000000     0.460630000000     0.0986554  
C86      C      0.599490000000     0.916390000000     0.470240000000     0.0697642  
C87      C      0.512470000000     0.831680000000     0.452900000000    -0.0945695  
C88      C      0.511210000000     0.741580000000     0.477860000000    -0.0881057  
C89      C      0.600530000000     0.873840000000     0.465540000000    -0.0857129  
C90      C      0.554340000000     0.782200000000     0.464130000000     0.0342613  
C91      C      0.556270000000     0.829930000000     0.459040000000     0.037231   
C92      C      0.510880000000     0.699230000000     0.489200000000     0.0749044  
C93      C      0.594490000000     0.733820000000     0.472630000000     0.0725538  
C94      C      0.595880000000     0.777090000000     0.460010000000    -0.0859609  
C95      C      0.446590000000     0.152790000000     0.596220000000     0.0954947  
C96      C      0.529240000000     0.203460000000     0.576760000000     0.0704103  
C97      C      0.445020000000     0.194380000000     0.606730000000    -0.0939751  
C98      C      0.439170000000     0.287020000000     0.601140000000    -0.0813699  
C99      C      0.528030000000     0.244490000000     0.585750000000    -0.0888049  
C100     C      0.483820000000     0.286650000000     0.605520000000     0.031865   
C101     C      0.485620000000     0.241150000000     0.600390000000     0.0386481  
C102     C      0.439730000000     0.331040000000     0.598070000000     0.0693694  
C103     C      0.527100000000     0.374630000000     0.604310000000     0.0726417  
C104     C      0.527780000000     0.331610000000     0.610170000000    -0.0825765  
C105     C      0.518310000000     0.020300000000     0.863460000000     0.104146   
C106     C      0.554440000000     0.105860000000     0.863510000000     0.0757855  
C107     C      0.521380000000     0.021710000000     0.820710000000    -0.099466   
C108     C      0.570670000000     0.042530000000     0.739230000000    -0.0873188  
C109     C      0.557070000000     0.108060000000     0.820650000000    -0.0918251  
C110     C      0.548810000000     0.066790000000     0.754780000000     0.0350351  
C111     C      0.542980000000     0.065940000000     0.799420000000     0.0416874  
C112     C      0.567540000000     0.035390000000     0.696920000000     0.0762991  
C113     C      0.524790000000     0.078620000000     0.685330000000     0.0792921  
C114     C      0.527840000000     0.086980000000     0.727370000000    -0.0872283  
C115     C      0.580580000000     0.069040000000     0.205610000000     0.102579   
C116     C      0.554290000000     0.985250000000     0.208870000000     0.0727727  
C117     C      0.568100000000     0.066600000000     0.246610000000    -0.0936093  
C118     C      0.511960000000     0.050080000000     0.321840000000    -0.0878293  
C119     C      0.540080000000     0.981610000000     0.249170000000    -0.0860585  
C120     C      0.527810000000     0.018790000000     0.310310000000     0.0372054  
C121     C      0.545230000000     0.022160000000     0.268110000000     0.0398612  
C122     C      0.503030000000     0.051840000000     0.362930000000     0.0790566  
C123     C      0.517400000000     0.987320000000     0.380540000000     0.0806915  
C124     C      0.528390000000     0.985710000000     0.339960000000    -0.0866086  
C125     C      0.552750000000     0.876550000000     0.981850000000     0.102914   
C126     C      0.540730000000     0.869680000000     0.053970000000     0.0736471  
C127     C      0.545620000000     0.829370000000     0.982490000000    -0.0937624  
C128     C      0.519820000000     0.722400000000     0.991240000000    -0.0832638  
C129     C      0.531990000000     0.822670000000     0.054940000000    -0.0884605  
C130     C      0.537920000000     0.756410000000     0.023000000000     0.0314059  
C131     C      0.536920000000     0.802600000000     0.019570000000     0.0373186  
C132     C      0.523470000000     0.680410000000     0.996050000000     0.0702372  
C133     C      0.561660000000     0.704930000000     0.062700000000     0.0728048  
C134     C      0.559270000000     0.746920000000     0.058770000000    -0.0873906  
C135     C      0.485790000000     0.153830000000     0.109120000000     0.0958042  
C136     C      0.566450000000     0.207800000000     0.086360000000     0.0676374  
C137     C      0.480830000000     0.193760000000     0.118340000000    -0.0942972  
C138     C      0.469210000000     0.283750000000     0.107870000000    -0.0852122  
C139     C      0.562200000000     0.247460000000     0.095110000000    -0.0885605  
C140     C      0.513910000000     0.284410000000     0.117180000000     0.031297   
C141     C      0.518970000000     0.241180000000     0.110860000000     0.0371456  
C142     C      0.468400000000     0.327190000000     0.106000000000     0.069601   
C143     C      0.553720000000     0.371150000000     0.125220000000     0.0677026  
C144     C      0.555570000000     0.328600000000     0.128570000000    -0.0857672  
C145     C      0.865200000000     0.372910000000     0.449130000000     0.104709   
C146     C      0.896700000000     0.323630000000     0.477670000000     0.0743401  
C147     C      0.821650000000     0.331770000000     0.435810000000    -0.0978734  
C148     C      0.725640000000     0.252390000000     0.462560000000    -0.0884776  
C149     C      0.852860000000     0.281840000000     0.465880000000    -0.0890139  
C150     C      0.762070000000     0.244480000000     0.448550000000     0.0345956  
C151     C      0.813430000000     0.285820000000     0.447570000000     0.0397179  
C152     C      0.679020000000     0.213730000000     0.469750000000     0.0769665  
C153     C      0.701750000000     0.158710000000     0.447500000000     0.074204   
C154     C      0.749640000000     0.196980000000     0.440470000000    -0.0872754  
C155     C      0.382150000000     0.853230000000     0.590210000000     0.0988653  
C156     C      0.330480000000     0.887100000000     0.593180000000     0.0673914  
C157     C      0.340560000000     0.806590000000     0.593130000000    -0.0940534  
C158     C      0.247070000000     0.719880000000     0.560410000000    -0.0856459  
C159     C      0.288560000000     0.840640000000     0.596430000000    -0.0850335  
C160     C      0.249050000000     0.749670000000     0.591410000000     0.0335502  
C161     C      0.293120000000     0.799590000000     0.595180000000     0.0378455  
C162     C      0.204790000000     0.675060000000     0.553550000000     0.0755992  
C163     C      0.166840000000     0.685100000000     0.609870000000     0.073486   
C164     C      0.208630000000     0.731360000000     0.617000000000    -0.0834593  
C165     C      0.824920000000     0.468770000000     0.521320000000     0.10902    
C166     C      0.872310000000     0.547970000000     0.492560000000     0.0769715  
C167     C      0.781250000000     0.469100000000     0.510140000000    -0.0992323  
C168     C      0.742940000000     0.554580000000     0.512370000000    -0.0878998  
C169     C      0.829240000000     0.549320000000     0.481780000000    -0.090246   
C170     C      0.739180000000     0.515660000000     0.491860000000     0.0335232  
C171     C      0.783320000000     0.510370000000     0.492230000000     0.0416517  
C172     C      0.700590000000     0.555850000000     0.519570000000     0.0742543  
C173     C      0.650420000000     0.482700000000     0.483750000000     0.0730598  
C174     C      0.692380000000     0.479530000000     0.477000000000    -0.0856122  
C175     C      0.194060000000     0.537330000000     0.469780000000     0.100757   
C176     C      0.156250000000     0.480840000000     0.524660000000     0.0694997  
C177     C      0.233420000000     0.527970000000     0.473030000000    -0.0974774  
C178     C      0.324490000000     0.545920000000     0.522120000000    -0.0899756  
C179     C      0.194400000000     0.470900000000     0.528290000000    -0.0895458  
C180     C      0.282630000000     0.500180000000     0.518740000000     0.0359867  
C181     C      0.235250000000     0.497030000000     0.504480000000     0.038204   
C182     C      0.367610000000     0.551350000000     0.541180000000     0.0819884  
C183     C      0.330150000000     0.466970000000     0.554120000000     0.0768482  
C184     C      0.285520000000     0.460170000000     0.535200000000    -0.0877909  
C185     C      0.049780000000     0.601100000000     0.867220000000     0.100534   
C186     C      0.061880000000     0.533690000000     0.868230000000     0.0763052  
C187     C      0.035700000000     0.594150000000     0.824800000000    -0.093925   
C188     C      0.028930000000     0.585880000000     0.730760000000    -0.0822911  
C189     C      0.048630000000     0.526650000000     0.826240000000    -0.0874775  
C190     C      0.018520000000     0.547720000000     0.759110000000     0.0319172  
C191     C      0.034670000000     0.556530000000     0.803860000000     0.0408967  
C192     C      0.015730000000     0.576450000000     0.688650000000     0.0740607  
C193     C      0.981450000000     0.492560000000     0.701930000000     0.0766968  
C194     C      0.993190000000     0.500550000000     0.744080000000    -0.082044   
C195     C      0.069520000000     0.509990000000     0.199600000000     0.0974611  
C196     C      0.051540000000     0.573140000000     0.203040000000     0.072375   
C197     C      0.059530000000     0.498700000000     0.241700000000    -0.0938137  
C198     C      0.053660000000     0.489420000000     0.335290000000    -0.0849755  
C199     C      0.043410000000     0.563690000000     0.245180000000    -0.086811   
C200     C      0.033200000000     0.512340000000     0.309780000000     0.0349918  
C201     C      0.045330000000     0.524830000000     0.265040000000     0.0378383  
C202     C      0.044180000000     0.481280000000     0.377490000000     0.0733732  
C203     C      0.994130000000     0.517010000000     0.370290000000     0.0768418  
C204     C      0.001270000000     0.524030000000     0.327900000000    -0.0904738  
C205     C      0.903170000000     0.404890000000     0.942830000000     0.0995601  
C206     C      0.880470000000     0.389500000000     0.012700000000     0.0733641  
C207     C      0.861540000000     0.359240000000     0.932120000000    -0.0945186  
C208     C      0.785490000000     0.239030000000     0.948580000000    -0.0846537  
C209     C      0.839780000000     0.345140000000     0.002940000000    -0.0928436  
C210     C      0.784430000000     0.281590000000     0.954640000000     0.0332124  
C211     C      0.830150000000     0.328790000000     0.962720000000     0.0412738  
C212     C      0.742810000000     0.193450000000     0.955050000000     0.0725133  
C213     C      0.699130000000     0.232050000000     0.971880000000     0.0779651  
C214     C      0.739750000000     0.277300000000     0.964230000000    -0.0896243  
C215     C      0.237320000000     0.691470000000     0.108980000000     0.104862   
C216     C      0.195570000000     0.735420000000     0.111890000000     0.0738396  
C217     C      0.282790000000     0.733650000000     0.116400000000    -0.097993   
C218     C      0.370950000000     0.826850000000     0.091810000000    -0.0837128  
C219     C      0.240490000000     0.778340000000     0.118190000000    -0.0899416  
C220     C      0.333450000000     0.824280000000     0.115020000000     0.0320085  
C221     C      0.285100000000     0.778300000000     0.117640000000     0.0405576  
C222     C      0.414470000000     0.870810000000     0.086380000000     0.0726537  
C223     C      0.385300000000     0.910280000000     0.126240000000     0.0703289  
C224     C      0.341620000000     0.866710000000     0.132910000000    -0.0834772  
C225     C      0.905520000000     0.570280000000     0.084660000000     0.114524   
C226     C      0.867650000000     0.486040000000     0.073560000000     0.0772379  
C227     C      0.862250000000     0.569820000000     0.070390000000    -0.0978957  
C228     C      0.777520000000     0.566480000000     0.015820000000    -0.0837304  
C229     C      0.823900000000     0.484560000000     0.058870000000    -0.0879143  
C230     C      0.776030000000     0.527360000000     0.039120000000     0.0344689  
C231     C      0.821670000000     0.527340000000     0.055240000000     0.042313   
C232     C      0.733730000000     0.567910000000     0.006590000000     0.0703818  
C233     C      0.688000000000     0.492140000000     0.040750000000     0.0794699  
C234     C      0.730110000000     0.489180000000     0.049810000000    -0.0889499  
C235     C      0.252040000000     0.607720000000     0.010680000000     0.102796   
C236     C      0.210480000000     0.539460000000     0.055620000000     0.073399   
C237     C      0.297520000000     0.612490000000     0.024710000000    -0.0976016  
C238     C      0.367840000000     0.573580000000     0.028140000000    -0.0893651  
C239     C      0.255610000000     0.543990000000     0.070110000000    -0.0870156  
C240     C      0.346330000000     0.579600000000     0.061840000000     0.0333997  
C241     C      0.299630000000     0.580330000000     0.054140000000     0.038896   
C242     C      0.407760000000     0.566430000000     0.034420000000     0.0747326  
C243     C      0.410140000000     0.576510000000     0.106590000000     0.0698284  
C244     C      0.368360000000     0.582140000000     0.101520000000    -0.0859499  
C245     C      0.844220000000     0.876670000000     0.549170000000     0.109196   
C246     C      0.852850000000     0.915450000000     0.612440000000     0.0747864  
C247     C      0.804700000000     0.834140000000     0.564270000000    -0.100462   
C248     C      0.752400000000     0.743650000000     0.616620000000    -0.0881897  
C249     C      0.812430000000     0.873210000000     0.627840000000    -0.0896594  
C250     C      0.748280000000     0.784900000000     0.618470000000     0.0332297  
C251     C      0.789420000000     0.831620000000     0.604080000000     0.0411644  
C252     C      0.709890000000     0.698310000000     0.613710000000     0.07321    
C253     C      0.659740000000     0.732880000000     0.620950000000     0.07482    
C254     C      0.701710000000     0.779150000000     0.623460000000    -0.087505   
C255     C      0.201090000000     0.176430000000     0.464850000000     0.10382    
C256     C      0.173120000000     0.219800000000     0.501080000000     0.0725868  
C257     C      0.242800000000     0.220320000000     0.453440000000    -0.0968538  
C258     C      0.344490000000     0.307950000000     0.462830000000    -0.0820295  
C259     C      0.214910000000     0.263440000000     0.491270000000    -0.0878022  
C260     C      0.300800000000     0.309710000000     0.464860000000     0.0320618  
C261     C      0.251720000000     0.264270000000     0.468630000000     0.0405196  
C262     C      0.390560000000     0.349830000000     0.468480000000     0.0696948  
C263     C      0.351960000000     0.395880000000     0.475850000000     0.0725481  
C264     C      0.305460000000     0.355270000000     0.468530000000    -0.0835293  
C265     C      0.869660000000     0.051540000000     0.491100000000     0.107745   
C266     C      0.914780000000     0.111350000000     0.541670000000     0.0772869  
C267     C      0.825940000000     0.049720000000     0.500990000000    -0.0987079  
C268     C      0.768240000000     0.108650000000     0.540000000000    -0.0858382  
C269     C      0.871840000000     0.111120000000     0.551310000000    -0.0888164  
C270     C      0.779190000000     0.071590000000     0.545660000000     0.0330772  
C271     C      0.826460000000     0.077900000000     0.532600000000     0.0409052  
C272     C      0.720480000000     0.099130000000     0.546570000000     0.0746132  
C273     C      0.695910000000     0.018650000000     0.567910000000     0.0740731  
C274     C      0.742930000000     0.026630000000     0.560850000000    -0.0857581  
C275     C      0.237590000000     0.091560000000     0.565800000000     0.102062   
C276     C      0.178960000000     0.007520000000     0.562790000000     0.0572358  
C277     C      0.272110000000     0.083330000000     0.547800000000    -0.0966118  
C278     C      0.328780000000     0.063500000000     0.488580000000    -0.0878375  
C279     C      0.212400000000     0.998650000000     0.544540000000    -0.0879917  
C280     C      0.295460000000     0.028490000000     0.515590000000     0.0363282  
C281     C      0.259230000000     0.036830000000     0.535780000000     0.0375147  
C282     C      0.368510000000     0.060180000000     0.476140000000     0.0794761  
C283     C      0.339090000000     0.984610000000     0.510750000000     0.0810398  
C284     C      0.299170000000     0.987120000000     0.524570000000    -0.0841349  
C285     C      0.978740000000     0.679680000000     0.529480000000     0.103716   
C286     C      0.027300000000     0.697090000000     0.470800000000     0.0725511  
C287     C      0.973850000000     0.719980000000     0.520170000000    -0.100943   
C288     C      0.974940000000     0.812660000000     0.466030000000    -0.0849972  
C289     C      0.023750000000     0.738210000000     0.461430000000    -0.0942029  
C290     C      0.006930000000     0.799900000000     0.487340000000     0.0290147  
C291     C      0.998500000000     0.750680000000     0.487400000000     0.0455656  
C292     C      0.980380000000     0.857940000000     0.472650000000     0.0768344  
C293     C      0.047680000000     0.876590000000     0.520810000000     0.0753147  
C294     C      0.043900000000     0.832480000000     0.514390000000    -0.0877983  
C295     C      0.048430000000     0.376210000000     0.632820000000     0.0994597  
C296     C      0.963190000000     0.329360000000     0.612580000000     0.0754663  
C297     C      0.048200000000     0.333820000000     0.646240000000    -0.0970198  
C298     C      0.052630000000     0.245490000000     0.632370000000    -0.0859075  
C299     C      0.962520000000     0.286770000000     0.624390000000    -0.0881058  
C300     C      0.008960000000     0.243300000000     0.642530000000     0.0307392  
C301     C      0.005930000000     0.288290000000     0.639520000000     0.0376834  
C302     C      0.053620000000     0.203380000000     0.627450000000     0.0743704  
C303     C      0.969860000000     0.155510000000     0.644620000000     0.0700201  
C304     C      0.967620000000     0.197440000000     0.650220000000    -0.0827272  
C305     C      0.007700000000     0.972550000000     0.886650000000     0.0993227  
C306     C      0.059010000000     0.057580000000     0.878000000000     0.0754911  
C307     C      0.007160000000     0.966990000000     0.843800000000    -0.0977564  
C308     C      0.996680000000     0.975600000000     0.748120000000    -0.0780287  
C309     C      0.058920000000     0.052880000000     0.835740000000    -0.090384   
C310     C      0.038710000000     0.002770000000     0.773800000000     0.0302666  
C311     C      0.034880000000     0.007180000000     0.818440000000     0.0427376  
C312     C      0.000320000000     0.980860000000     0.705230000000     0.0708325  
C313     C      0.086750000000     0.034660000000     0.713090000000     0.0753653  
C314     C      0.084520000000     0.030140000000     0.755880000000    -0.0843965  
C315     C      0.104660000000     0.047410000000     0.209930000000     0.102062   
C316     C      0.079290000000     0.105820000000     0.206760000000     0.0764967  
C317     C      0.104410000000     0.046480000000     0.253190000000    -0.0950022  
C318     C      0.110720000000     0.055960000000     0.345640000000    -0.087642   
C319     C      0.080450000000     0.106690000000     0.249600000000    -0.0893361  
C320     C      0.082420000000     0.068740000000     0.318530000000     0.0350346  
C321     C      0.090110000000     0.074700000000     0.273370000000     0.0406139  
C322     C      0.099350000000     0.045630000000     0.387030000000     0.0766032  
C323     C      0.034720000000     0.063300000000     0.376390000000     0.0746526  
C324     C      0.044230000000     0.072680000000     0.334580000000    -0.0863069  
C325     C      0.739170000000     0.663580000000     0.096460000000     0.099044   
C326     C      0.700570000000     0.705470000000     0.065010000000     0.078564   
C327     C      0.785720000000     0.706240000000     0.093700000000    -0.0959371  
C328     C      0.875930000000     0.792740000000     0.051210000000    -0.0859261  
C329     C      0.745330000000     0.747440000000     0.062020000000    -0.0925097  
C330     C      0.836240000000     0.793160000000     0.068200000000     0.0349026  
C331     C      0.788800000000     0.748210000000     0.075330000000     0.0401299  
C332     C      0.917350000000     0.836530000000     0.039670000000     0.0740952  
C333     C      0.879900000000     0.879850000000     0.060370000000     0.080552   
C334     C      0.839250000000     0.837560000000     0.073330000000    -0.0880938  
C335     C      0.208940000000     0.226960000000     0.076960000000     0.107826   
C336     C      0.235090000000     0.171900000000     0.062280000000     0.0709114  
C337     C      0.252080000000     0.264840000000     0.060350000000    -0.0985687  
C338     C      0.372110000000     0.292680000000     0.018790000000    -0.0889172  
C339     C      0.276920000000     0.208210000000     0.044250000000    -0.0923047  
C340     C      0.328210000000     0.294010000000     0.020010000000     0.0342795  
C341     C      0.284820000000     0.255060000000     0.041170000000     0.039773   
C342     C      0.414800000000     0.333450000000     0.005920000000     0.0757166  
C343     C      0.371050000000     0.375040000000     0.991330000000     0.0727866  
C344     C      0.327130000000     0.334310000000     0.002480000000    -0.0922613  
C345     C      0.917330000000     0.072900000000     0.124470000000     0.112084   
C346     C      0.872480000000     0.987160000000     0.121050000000     0.077167   
C347     C      0.873300000000     0.073550000000     0.126380000000    -0.0997764  
C348     C      0.762580000000     0.052160000000     0.132730000000    -0.0853024  
C349     C      0.827700000000     0.986970000000     0.121160000000    -0.0893711  
C350     C      0.784010000000     0.034060000000     0.107720000000     0.0346077  
C351     C      0.828110000000     0.030850000000     0.121640000000     0.0414804  
C352     C      0.724080000000     0.059210000000     0.116220000000     0.0756974  
C353     C      0.730680000000     0.034080000000     0.050670000000     0.0771664  
C354     C      0.767750000000     0.025260000000     0.066360000000    -0.0872746  
C355     C      0.370760000000     0.975250000000     0.997730000000     0.102772   
C356     C      0.401440000000     0.056170000000     0.974130000000     0.0750039  
C357     C      0.322550000000     0.967780000000     0.996550000000    -0.0917414  
C358     C      0.220040000000     0.957130000000     0.987490000000    -0.0851962  
C359     C      0.353740000000     0.048890000000     0.970810000000    -0.0876761  
C360     C      0.264950000000     0.001420000000     0.990220000000     0.0362198  
C361     C      0.313930000000     0.005570000000     0.985060000000     0.0389161  
C362     C      0.175330000000     0.955100000000     0.994240000000     0.0711244  
C363     C      0.218240000000     0.039380000000     0.005540000000     0.0747499  
C364     C      0.263210000000     0.042480000000     0.000100000000    -0.0896621  
C365     C      0.026910000000     0.715790000000     0.022610000000     0.0924178  
C366     C      0.113410000000     0.754010000000     0.038080000000     0.0746074  
C367     C      0.024930000000     0.751630000000     0.044160000000    -0.0971059  
C368     C      0.022450000000     0.819630000000     0.103920000000    -0.0843926  
C369     C      0.112050000000     0.788840000000     0.060880000000    -0.091673   
C370     C      0.065910000000     0.826950000000     0.086820000000     0.0349319  
C371     C      0.067370000000     0.787840000000     0.064820000000     0.0396635  
C372     C      0.019540000000     0.859370000000     0.116270000000     0.0719479  
C373     C      0.103320000000     0.911770000000     0.101220000000     0.080153   
C374     C      0.107390000000     0.873570000000     0.088050000000    -0.0819822  
C375     C      0.118090000000     0.235130000000     0.988910000000     0.105258   
C376     C      0.036590000000     0.197350000000     0.013200000000     0.0674572  
C377     C      0.123760000000     0.280640000000     0.995720000000    -0.097354   
C378     C      0.094210000000     0.359580000000     0.983270000000    -0.0846964  
C379     C      0.041850000000     0.241760000000     0.020880000000    -0.0914688  
C380     C      0.088950000000     0.330440000000     0.018020000000     0.0312323  
C381     C      0.085950000000     0.283800000000     0.012980000000     0.0393616  
C382     C      0.085150000000     0.397420000000     0.985660000000     0.0748697  
C383     C      0.070930000000     0.381400000000     0.057190000000     0.0700508  
C384     C      0.078490000000     0.342210000000     0.055620000000    -0.085516   
Co1      Co     0.042120000000     0.098320000000     0.070240000000     1.12944    
Co2      Co     0.060360000000     0.989130000000     0.026720000000     0.929907   
Co3      Co     0.111510000000     0.083810000000     0.010740000000     1.04624    
Co4      Co     0.022900000000     0.996530000000     0.086270000000     1.06917    
Co5      Co     0.088370000000     0.025410000000     0.524710000000     1.11389    
Co6      Co     0.999390000000     0.051610000000     0.583840000000     1.07595    
Co7      Co     0.978360000000     0.996040000000     0.498900000000     1.14878    
Co8      Co     0.092060000000     0.100750000000     0.584090000000     0.941062   
Co9      Co     0.056030000000     0.512140000000     0.005410000000     1.05736    
Co10     Co     0.043790000000     0.606500000000     0.064600000000     1.14312    
Co11     Co     0.020530000000     0.495030000000     0.072000000000     0.894682   
Co12     Co     0.124350000000     0.624270000000     0.001700000000     1.09716    
Co13     Co     0.038770000000     0.465380000000     0.522650000000     1.08339    
Co14     Co     0.019810000000     0.570130000000     0.551970000000     1.06209    
Co15     Co     0.949320000000     0.457080000000     0.567170000000     1.1634     
Co16     Co     0.060420000000     0.570620000000     0.490580000000     0.888365   
Co17     Co     0.516080000000     0.029190000000     0.069680000000     0.863401   
Co18     Co     0.603420000000     0.037780000000     0.983790000000     1.1547     
Co19     Co     0.565580000000     0.113020000000     0.005180000000     1.15259    
Co20     Co     0.569420000000     0.013600000000     0.076800000000     0.882924   
Co21     Co     0.468740000000     0.019530000000     0.558600000000     1.16114    
Co22     Co     0.566030000000     0.031950000000     0.502280000000     1.09041    
Co23     Co     0.527950000000     0.102370000000     0.495060000000     1.18088    
Co24     Co     0.531290000000     0.983410000000     0.562890000000     0.783405   
Co25     Co     0.559940000000     0.470940000000     0.034430000000     1.09077    
Co26     Co     0.561120000000     0.570200000000     0.100760000000     1.0614     
Co27     Co     0.469360000000     0.471760000000     0.067110000000     1.06904    
Co28     Co     0.580650000000     0.574390000000     0.004620000000     1.07889    
Co29     Co     0.511290000000     0.489200000000     0.520070000000     0.82697    
Co30     Co     0.516310000000     0.598050000000     0.578590000000     1.25194    
Co31     Co     0.479470000000     0.483480000000     0.569770000000     0.844603   
Co32     Co     0.601010000000     0.597830000000     0.526150000000     1.11567    
H1       H      0.492980000000     0.533660000000     0.903190000000     0.0331035  
H2       H      0.510770000000     0.456100000000     0.685620000000     0.0337763  
H3       H      0.575350000000     0.468430000000     0.825680000000     0.0522233  
H4       H      0.516840000000     0.442690000000     0.759180000000     0.0542436  
H5       H      0.489930000000     0.539020000000     0.829110000000     0.0534872  
H6       H      0.556360000000     0.588970000000     0.780430000000     0.0571189  
H7       H      0.577870000000     0.463550000000     0.901610000000     0.0248776  
H8       H      0.607010000000     0.597350000000     0.396770000000     0.0235486  
H9       H      0.440650000000     0.488780000000     0.192400000000     0.0256535  
H10      H      0.443980000000     0.478670000000     0.335030000000     0.0526607  
H11      H      0.444040000000     0.506350000000     0.264790000000     0.0514002  
H12      H      0.598790000000     0.582380000000     0.323060000000     0.0517802  
H13      H      0.585260000000     0.515360000000     0.281880000000     0.0571269  
H14      H      0.453140000000     0.495200000000     0.407860000000     0.0316311  
H15      H      0.476590000000     0.669720000000     0.500550000000     0.0267466  
H16      H      0.634360000000     0.948860000000     0.477710000000     0.029562   
H17      H      0.629850000000     0.806580000000     0.448470000000     0.0502806  
H18      H      0.635690000000     0.875310000000     0.469910000000     0.0506279  
H19      H      0.478000000000     0.742530000000     0.482630000000     0.0512242  
H20      H      0.478180000000     0.799650000000     0.443610000000     0.0547227  
H21      H      0.627890000000     0.732030000000     0.471090000000     0.0217197  
H22      H      0.404590000000     0.329670000000     0.592710000000     0.0333794  
H23      H      0.563940000000     0.209990000000     0.565580000000     0.0318394  
H24      H      0.563240000000     0.334210000000     0.616630000000     0.0512666  
H25      H      0.560470000000     0.278830000000     0.579110000000     0.0522241  
H26      H      0.403990000000     0.253930000000     0.597570000000     0.0511594  
H27      H      0.411910000000     0.190160000000     0.619290000000     0.0549051  
H28      H      0.562150000000     0.408370000000     0.605370000000     0.0333594  
H29      H      0.582770000000     0.014490000000     0.686000000000     0.0278027  
H30      H      0.569070000000     0.139770000000     0.879310000000     0.0220621  
H31      H      0.511030000000     0.106310000000     0.738500000000     0.054624   
H32      H      0.572290000000     0.142680000000     0.804560000000     0.0536806  
H33      H      0.588020000000     0.027270000000     0.759850000000     0.0540749  
H34      H      0.506780000000     0.988470000000     0.803780000000     0.0599096  
H35      H      0.506040000000     0.092770000000     0.665030000000     0.0337483  
H36      H      0.493700000000     0.078490000000     0.371190000000     0.0213251  
H37      H      0.547170000000     0.952110000000     0.195010000000     0.0331251  
H38      H      0.540030000000     0.960540000000     0.332800000000     0.0539121  
H39      H      0.523130000000     0.946510000000     0.264430000000     0.0526163  
H40      H      0.508100000000     0.074440000000     0.299670000000     0.0536758  
H41      H      0.576240000000     0.099370000000     0.261770000000     0.0572879  
H42      H      0.521160000000     0.963120000000     0.402940000000     0.0308316  
H43      H      0.509260000000     0.654950000000     0.971030000000     0.0250323  
H44      H      0.537730000000     0.883500000000     0.082820000000     0.0360592  
H45      H      0.575360000000     0.772380000000     0.083720000000     0.0517037  
H46      H      0.522900000000     0.802700000000     0.084010000000     0.0525518  
H47      H      0.502790000000     0.727970000000     0.963030000000     0.0506266  
H48      H      0.549340000000     0.814490000000     0.954560000000     0.0558137  
H49      H      0.578860000000     0.700090000000     0.091210000000     0.0236969  
H50      H      0.433840000000     0.325560000000     0.096640000000     0.025408   
H51      H      0.600980000000     0.215880000000     0.073700000000     0.0273404  
H52      H      0.590380000000     0.330890000000     0.138080000000     0.0508558  
H53      H      0.592630000000     0.283130000000     0.088010000000     0.0496259  
H54      H      0.435740000000     0.250560000000     0.099410000000     0.0486219  
H55      H      0.447310000000     0.187960000000     0.131430000000     0.0549424  
H56      H      0.587690000000     0.404800000000     0.131870000000     0.0295159  
H57      H      0.652590000000     0.221900000000     0.481510000000     0.0240981  
H58      H      0.924760000000     0.319060000000     0.495180000000     0.0240464  
H59      H      0.776860000000     0.189400000000     0.429680000000     0.0522053  
H60      H      0.848320000000     0.246920000000     0.474830000000     0.0512749  
H61      H      0.733600000000     0.288220000000     0.470070000000     0.0535745  
H62      H      0.792620000000     0.335340000000     0.418890000000     0.0570372  
H63      H      0.693440000000     0.122240000000     0.441990000000     0.0313366  
H64      H      0.204410000000     0.654410000000     0.527900000000     0.0286612  
H65      H      0.324360000000     0.917450000000     0.593070000000     0.0310302  
H66      H      0.208930000000     0.752910000000     0.641760000000     0.053256   
H67      H      0.252470000000     0.836960000000     0.598010000000     0.052158   
H68      H      0.277280000000     0.732110000000     0.540000000000     0.0536873  
H69      H      0.344910000000     0.775090000000     0.593450000000     0.0568633  
H70      H      0.135350000000     0.672950000000     0.628830000000     0.0300389  
H71      H      0.705560000000     0.586370000000     0.536580000000     0.0209063  
H72      H      0.907190000000     0.579820000000     0.485370000000     0.0315303  
H73      H      0.688190000000     0.448630000000     0.461210000000     0.0521154  
H74      H      0.832050000000     0.581730000000     0.467320000000     0.0535324  
H75      H      0.778260000000     0.582790000000     0.524870000000     0.0536378  
H76      H      0.745650000000     0.438190000000     0.517470000000     0.0582128  
H77      H      0.614590000000     0.454060000000     0.472510000000     0.0309724  
H78      H      0.398580000000     0.588060000000     0.543190000000     0.0265954  
H79      H      0.126640000000     0.460890000000     0.545600000000     0.0175039  
H80      H      0.253580000000     0.424090000000     0.533710000000     0.0496826  
H81      H      0.193720000000     0.446140000000     0.552530000000     0.0533481  
H82      H      0.323670000000     0.578090000000     0.511620000000     0.0536005  
H83      H      0.264360000000     0.547250000000     0.453140000000     0.0562392  
H84      H      0.331800000000     0.435580000000     0.565850000000     0.0307654  
H85      H      0.025650000000     0.607020000000     0.667660000000     0.0359329  
H86      H      0.072240000000     0.509090000000     0.883570000000     0.0360471  
H87      H      0.982600000000     0.469620000000     0.764670000000     0.0531141  
H88      H      0.049810000000     0.497790000000     0.811440000000     0.0543414  
H89      H      0.048610000000     0.623020000000     0.740640000000     0.0528441  
H90      H      0.024050000000     0.617210000000     0.808330000000     0.0570622  
H91      H      0.962850000000     0.455430000000     0.691890000000     0.0284389  
H92      H      0.062440000000     0.465420000000     0.396200000000     0.0257944  
H93      H      0.047870000000     0.602810000000     0.189510000000     0.0252003  
H94      H      0.982250000000     0.539420000000     0.309770000000     0.0548704  
H95      H      0.035320000000     0.587030000000     0.261830000000     0.0516175  
H96      H      0.078710000000     0.479570000000     0.323550000000     0.0512066  
H97      H      0.062130000000     0.468780000000     0.256000000000     0.054621   
H98      H      0.970780000000     0.528520000000     0.383060000000     0.0292369  
H99      H      0.745100000000     0.161180000000     0.952010000000     0.0222866  
H100     H      0.885760000000     0.398720000000     0.045020000000     0.0271759  
H101     H      0.737390000000     0.309190000000     0.969250000000     0.0528904  
H102     H      0.815840000000     0.323200000000     0.027350000000     0.0559062  
H103     H      0.819710000000     0.240940000000     0.941750000000     0.0541598  
H104     H      0.853410000000     0.347490000000     0.900340000000     0.0572364  
H105     H      0.666100000000     0.231190000000     0.981060000000     0.0175648  
H106     H      0.442040000000     0.871200000000     0.067690000000     0.0331318  
H107     H      0.162200000000     0.737630000000     0.109850000000     0.0215168  
H108     H      0.314400000000     0.866610000000     0.151750000000     0.0509545  
H109     H      0.239950000000     0.811600000000     0.120270000000     0.0502256  
H110     H      0.366270000000     0.795490000000     0.076530000000     0.052479   
H111     H      0.316460000000     0.731930000000     0.120020000000     0.0565482  
H112     H      0.389780000000     0.942360000000     0.140150000000     0.0345625  
H113     H      0.736080000000     0.599600000000     0.990950000000     0.023309   
H114     H      0.869390000000     0.453300000000     0.072810000000     0.0189185  
H115     H      0.726650000000     0.458200000000     0.067510000000     0.0516302  
H116     H      0.792910000000     0.450450000000     0.048560000000     0.0511229  
H117     H      0.812370000000     0.596450000000     0.006110000000     0.0528441  
H118     H      0.860120000000     0.602490000000     0.071080000000     0.0579082  
H119     H      0.653480000000     0.462120000000     0.051290000000     0.0105358  
H120     H      0.421990000000     0.559990000000     0.007340000000     0.035907   
H121     H      0.177370000000     0.509910000000     0.068540000000     0.0357507  
H122     H      0.352830000000     0.587330000000     0.128270000000     0.0518213  
H123     H      0.255790000000     0.517740000000     0.092320000000     0.0540086  
H124     H      0.352260000000     0.571890000000     0.997020000000     0.0561812  
H125     H      0.331720000000     0.640660000000     0.011960000000     0.0569454  
H126     H      0.425450000000     0.576580000000     0.137550000000     0.0212182  
H127     H      0.714460000000     0.667610000000     0.609000000000     0.0259467  
H128     H      0.871530000000     0.946350000000     0.632500000000     0.0321967  
H129     H      0.697270000000     0.810350000000     0.625080000000     0.0528291  
H130     H      0.800410000000     0.872630000000     0.658480000000     0.0541216  
H131     H      0.788050000000     0.746860000000     0.613260000000     0.0543343  
H132     H      0.784870000000     0.802740000000     0.544710000000     0.0582254  
H133     H      0.623880000000     0.730030000000     0.621520000000     0.0233483  
H134     H      0.423160000000     0.346290000000     0.469300000000     0.032021   
H135     H      0.147100000000     0.222030000000     0.519900000000     0.0301287  
H136     H      0.273420000000     0.359570000000     0.467930000000     0.0496042  
H137     H      0.219120000000     0.295930000000     0.503900000000     0.0513754  
H138     H      0.343690000000     0.274140000000     0.460040000000     0.0505331  
H139     H      0.269000000000     0.220040000000     0.433490000000     0.0553835  
H140     H      0.353790000000     0.429820000000     0.481270000000     0.0314257  
H141     H      0.712570000000     0.128040000000     0.539940000000     0.0314926  
H142     H      0.948760000000     0.135960000000     0.558430000000     0.0311345  
H143     H      0.750450000000     0.997300000000     0.565950000000     0.0545801  
H144     H      0.873810000000     0.134970000000     0.574770000000     0.0525017  
H145     H      0.795520000000     0.143920000000     0.528450000000     0.0510227  
H146     H      0.791260000000     0.026290000000     0.484230000000     0.0590862  
H147     H      0.668280000000     0.982810000000     0.578120000000     0.0266322  
H148     H      0.395490000000     0.089860000000     0.457680000000     0.0208695  
H149     H      0.143080000000     0.976350000000     0.568550000000     0.0254432  
H150     H      0.273590000000     0.958360000000     0.544430000000     0.05244    
H151     H      0.200890000000     0.961960000000     0.536520000000     0.0491962  
H152     H      0.325780000000     0.094700000000     0.478760000000     0.051726   
H153     H      0.309380000000     0.113140000000     0.543580000000     0.0569228  
H154     H      0.342490000000     0.953580000000     0.520300000000     0.0295653  
H155     H      0.954860000000     0.866950000000     0.456160000000     0.0246347  
H156     H      0.049610000000     0.689870000000     0.451430000000     0.023894   
H157     H      0.068620000000     0.823050000000     0.531770000000     0.0547131  
H158     H      0.043430000000     0.761790000000     0.435900000000     0.0545571  
H159     H      0.945340000000     0.787470000000     0.445470000000     0.0523293  
H160     H      0.953210000000     0.729230000000     0.539740000000     0.0603623  
H161     H      0.076390000000     0.900310000000     0.542760000000     0.0240345  
H162     H      0.088200000000     0.207590000000     0.618320000000     0.0276607  
H163     H      0.928860000000     0.325490000000     0.599090000000     0.02571    
H164     H      0.933250000000     0.193740000000     0.659110000000     0.0499266  
H165     H      0.928710000000     0.252800000000     0.618780000000     0.0505915  
H166     H      0.085530000000     0.279440000000     0.625520000000     0.0513143  
H167     H      0.081440000000     0.336200000000     0.660810000000     0.0557196  
H168     H      0.936760000000     0.120720000000     0.648920000000     0.0301001  
H169     H      0.966450000000     0.962000000000     0.686220000000     0.035203   
H170     H      0.079870000000     0.094070000000     0.889600000000     0.0305226  
H171     H      0.118150000000     0.050240000000     0.774860000000     0.0535871  
H172     H      0.078620000000     0.085150000000     0.816730000000     0.0553738  
H173     H      0.960720000000     0.953360000000     0.760890000000     0.0524037  
H174     H      0.986260000000     0.931440000000     0.830270000000     0.0597466  
H175     H      0.122510000000     0.058630000000     0.700430000000     0.0292183  
H176     H      0.121250000000     0.034410000000     0.406570000000     0.0243185  
H177     H      0.069150000000     0.129850000000     0.189980000000     0.0262082  
H178     H      0.020560000000     0.081450000000     0.314880000000     0.0529635  
H179     H      0.071960000000     0.131250000000     0.263850000000     0.0529278  
H180     H      0.141260000000     0.053400000000     0.335090000000     0.0516865  
H181     H      0.113680000000     0.022400000000     0.270950000000     0.0565552  
H182     H      0.004600000000     0.066390000000     0.387380000000     0.0273978  
H183     H      0.948030000000     0.835420000000     0.027400000000     0.0310083  
H184     H      0.668040000000     0.706720000000     0.053140000000     0.0245512  
H185     H      0.809700000000     0.839740000000     0.086590000000     0.052145   
H186     H      0.745670000000     0.778670000000     0.047370000000     0.0534776  
H187     H      0.874550000000     0.759000000000     0.046040000000     0.0505884  
H188     H      0.819270000000     0.706640000000     0.104810000000     0.0553444  
H189     H      0.879720000000     0.913120000000     0.063940000000     0.0299201  
H190     H      0.448750000000     0.332210000000     0.008440000000     0.0238135  
H191     H      0.230470000000     0.136030000000     0.062760000000     0.0239717  
H192     H      0.293350000000     0.335730000000     0.999760000000     0.05345    
H193     H      0.301370000000     0.198420000000     0.031220000000     0.0488121  
H194     H      0.375270000000     0.262340000000     0.030900000000     0.0483334  
H195     H      0.259920000000     0.301730000000     0.062130000000     0.0555589  
H196     H      0.369930000000     0.407310000000     0.981610000000     0.024772   
H197     H      0.707340000000     0.072070000000     0.136540000000     0.0308615  
H198     H      0.871010000000     0.953050000000     0.117780000000     0.0214075  
H199     H      0.784650000000     0.012820000000     0.045800000000     0.0565035  
H200     H      0.793080000000     0.953150000000     0.117770000000     0.0540264  
H201     H      0.775440000000     0.060710000000     0.164660000000     0.0543497  
H202     H      0.874030000000     0.107620000000     0.127970000000     0.059711   
H203     H      0.719660000000     0.026690000000     0.018250000000     0.0242839  
H204     H      0.141420000000     0.920440000000     0.991820000000     0.0320842  
H205     H      0.431110000000     0.091620000000     0.965200000000     0.0244093  
H206     H      0.296510000000     0.077200000000     0.004430000000     0.0505151  
H207     H      0.348700000000     0.078240000000     0.958740000000     0.0515974  
H208     H      0.219060000000     0.924250000000     0.979800000000     0.0519484  
H209     H      0.292170000000     0.932920000000     0.005770000000     0.0538948  
H210     H      0.219360000000     0.072500000000     0.012910000000     0.0211997  
H211     H      0.984170000000     0.853140000000     0.125440000000     0.0325374  
H212     H      0.149010000000     0.756480000000     0.036600000000     0.0254177  
H213     H      0.142120000000     0.881980000000     0.075850000000     0.0514576  
H214     H      0.146180000000     0.815740000000     0.075970000000     0.0493997  
H215     H      0.990000000000     0.783990000000     0.105630000000     0.0515199  
H216     H      0.990500000000     0.751830000000     0.044000000000     0.0570676  
H217     H      0.135660000000     0.947640000000     0.099150000000     0.0319762  
H218     H      0.087730000000     0.418040000000     0.957480000000     0.0353655  
H219     H      0.001270000000     0.165980000000     0.020290000000     0.0241473  
H220     H      0.074140000000     0.320020000000     0.083070000000     0.0518898  
H221     H      0.011000000000     0.243160000000     0.032410000000     0.0539222  
H222     H      0.101980000000     0.351200000000     0.953730000000     0.0539808  
H223     H      0.157300000000     0.313600000000     0.987590000000     0.0566966  
H224     H      0.061260000000     0.388800000000     0.086310000000     0.0267228  
N1       N      0.527930000000     0.529920000000     0.689380000000    -0.202758   
N2       N      0.537250000000     0.499750000000     0.908030000000    -0.201751   
N3       N      0.511870000000     0.494620000000     0.194360000000    -0.204278   
N4       N      0.531130000000     0.546600000000     0.408030000000    -0.199485   
N5       N      0.555480000000     0.915600000000     0.471420000000    -0.189461   
N6       N      0.552870000000     0.696110000000     0.489000000000    -0.209863   
N7       N      0.488580000000     0.157690000000     0.579630000000    -0.20081    
N8       N      0.483530000000     0.374210000000     0.596920000000    -0.18116    
N9       N      0.538980000000     0.062980000000     0.885000000000    -0.216218   
N10      N      0.542140000000     0.050820000000     0.670630000000    -0.208999   
N11      N      0.570900000000     0.027500000000     0.186220000000    -0.184997   
N12      N      0.508340000000     0.022430000000     0.392310000000    -0.207419   
N13      N      0.552600000000     0.897450000000     0.018330000000    -0.203071   
N14      N      0.544420000000     0.671930000000     0.031580000000    -0.204222   
N15      N      0.528470000000     0.161020000000     0.091840000000    -0.201981   
N16      N      0.511250000000     0.370760000000     0.111460000000    -0.202299   
N17      N      0.900450000000     0.368100000000     0.473260000000    -0.210342   
N18      N      0.667430000000     0.167150000000     0.463370000000    -0.204873   
N19      N      0.376980000000     0.894030000000     0.588430000000    -0.184415   
N20      N      0.164140000000     0.658540000000     0.576880000000    -0.200593   
N21      N      0.870690000000     0.509800000000     0.515010000000    -0.211282   
N22      N      0.654570000000     0.519850000000     0.506080000000    -0.204094   
N23      N      0.157500000000     0.516350000000     0.498110000000    -0.207466   
N24      N      0.370960000000     0.512350000000     0.556660000000    -0.211801   
N25      N      0.062780000000     0.570420000000     0.889100000000    -0.199858   
N26      N      0.993490000000     0.530210000000     0.674230000000    -0.201709   
N27      N      0.062500000000     0.545620000000     0.179490000000    -0.201851   
N28      N      0.016820000000     0.497400000000     0.395170000000    -0.20083    
N29      N      0.913550000000     0.419050000000     0.983800000000    -0.202716   
N30      N      0.701070000000     0.190410000000     0.969180000000    -0.207864   
N31      N      0.194650000000     0.693810000000     0.102410000000    -0.209795   
N32      N      0.421060000000     0.912370000000     0.102650000000    -0.182894   
N33      N      0.909100000000     0.529160000000     0.082880000000    -0.210859   
N34      N      0.690010000000     0.532240000000     0.021420000000    -0.204831   
N35      N      0.207940000000     0.570430000000     0.025840000000    -0.203698   
N36      N      0.427510000000     0.565910000000     0.073360000000    -0.203605   
N37      N      0.870350000000     0.916550000000     0.574380000000    -0.208457   
N38      N      0.663910000000     0.693620000000     0.612350000000    -0.212633   
N39      N      0.167530000000     0.176100000000     0.490960000000    -0.20132    
N40      N      0.393790000000     0.392430000000     0.478080000000    -0.184461   
N41      N      0.913120000000     0.078720000000     0.514680000000    -0.208983   
N42      N      0.684100000000     0.053900000000     0.558770000000    -0.20174    
N43      N      0.189900000000     0.053620000000     0.571390000000    -0.209617   
N44      N      0.375910000000     0.023220000000     0.490340000000    -0.206953   
N45      N      0.008480000000     0.670420000000     0.506240000000    -0.193739   
N46      N      0.015980000000     0.889170000000     0.500430000000    -0.209888   
N47      N      0.006380000000     0.373410000000     0.613620000000    -0.21184    
N48      N      0.011980000000     0.158720000000     0.631400000000    -0.191989   
N49      N      0.036900000000     0.017880000000     0.904030000000    -0.204573   
N50      N      0.044430000000     0.013100000000     0.688180000000    -0.202425   
N51      N      0.087550000000     0.073970000000     0.186700000000    -0.206245   
N52      N      0.061590000000     0.049150000000     0.402280000000    -0.208441   
N53      N      0.697360000000     0.663330000000     0.079980000000    -0.210898   
N54      N      0.919280000000     0.879670000000     0.044780000000    -0.203013   
N55      N      0.198440000000     0.179820000000     0.073820000000    -0.20955    
N56      N      0.415030000000     0.375770000000     0.997320000000    -0.207267   
N57      N      0.916210000000     0.029930000000     0.118370000000    -0.205688   
N58      N      0.708130000000     0.049980000000     0.075460000000    -0.201036   
N59      N      0.410790000000     0.021230000000     0.990760000000    -0.201106   
N60      N      0.174550000000     0.996170000000     0.002560000000    -0.192188   
N61      N      0.070940000000     0.715740000000     0.021640000000    -0.213527   
N62      N      0.058580000000     0.905270000000     0.111220000000    -0.185377   
N63      N      0.074960000000     0.193300000000     0.999570000000    -0.206282   
N64      N      0.071890000000     0.407150000000     0.021950000000    -0.189248   
O1       O      0.031440000000     0.113410000000     0.015800000000    -0.445108   
O2       O      0.001050000000     0.925860000000     0.029960000000    -0.406331   
O3       O      0.080090000000     0.067040000000     0.958460000000    -0.454385   
O4       O      0.974200000000     0.005760000000     0.115330000000    -0.384226   
O5       O      0.036950000000     0.990620000000     0.971150000000    -0.409763   
O6       O      0.974630000000     0.059690000000     0.071190000000    -0.448944   
O7       O      0.965980000000     0.960340000000     0.052930000000    -0.444494   
O8       O      0.106530000000     0.142250000000     0.001600000000    -0.417348   
O9       O      0.051890000000     0.087450000000     0.127520000000    -0.463144   
O10      O      0.089830000000     0.956110000000     0.009170000000    -0.374339   
O11      O      0.144530000000     0.101030000000     0.062130000000    -0.458349   
O12      O      0.012130000000     0.942280000000     0.118230000000    -0.396858   
O13      O      0.080330000000     0.979070000000     0.082910000000    -0.442932   
O14      O      0.113880000000     0.145390000000     0.074570000000    -0.433986   
O15      O      0.076860000000     0.036450000000     0.125090000000    -0.416489   
O16      O      0.131600000000     0.035430000000     0.009100000000    -0.494304   
O17      O      0.045890000000     0.043350000000     0.044620000000    -0.588617   
O18      O      0.073380000000     0.022160000000     0.466140000000    -0.459334   
O19      O      0.976200000000     0.076400000000     0.621870000000    -0.401127   
O20      O      0.944910000000     0.030650000000     0.502100000000    -0.46835    
O21      O      0.105160000000     0.138880000000     0.536210000000    -0.428034   
O22      O      0.987830000000     0.090590000000     0.541770000000    -0.427003   
O23      O      0.130600000000     0.094830000000     0.509340000000    -0.426189   
O24      O      0.051480000000     0.125220000000     0.602240000000    -0.472764   
O25      O      0.014760000000     0.039360000000     0.456850000000    -0.471086   
O26      O      0.108420000000     0.025530000000     0.579640000000    -0.453964   
O27      O      0.931530000000     0.996980000000     0.578910000000    -0.40614    
O28      O      0.996860000000     0.948830000000     0.486500000000    -0.448249   
O29      O      0.083070000000     0.066190000000     0.635270000000    -0.438056   
O30      O      0.006120000000     0.012650000000     0.625780000000    -0.440521   
O31      O      0.052010000000     0.959800000000     0.534740000000    -0.466048   
O32      O      0.154010000000     0.099390000000     0.580770000000    -0.399142   
O33      O      0.939350000000     0.950760000000     0.537210000000    -0.47425    
O34      O      0.034910000000     0.036000000000     0.544930000000    -0.554297   
O35      O      0.990570000000     0.490140000000     0.978330000000    -0.401891   
O36      O      0.037230000000     0.635250000000     0.014880000000    -0.448747   
O37      O      0.970080000000     0.508300000000     0.094350000000    -0.392798   
O38      O      0.088530000000     0.611770000000     0.950420000000    -0.438942   
O39      O      0.980330000000     0.565640000000     0.051550000000    -0.480147   
O40      O      0.076800000000     0.539010000000     0.950530000000    -0.396237   
O41      O      0.113300000000     0.677710000000     0.008080000000    -0.445188   
O42      O      0.968600000000     0.456720000000     0.037020000000    -0.475211   
O43      O      0.123270000000     0.532530000000     0.030430000000    -0.412759   
O44      O      0.046490000000     0.579470000000     0.120110000000    -0.437037   
O45      O      0.054660000000     0.458730000000     0.055830000000    -0.409562   
O46      O      0.161440000000     0.638470000000     0.051920000000    -0.459303   
O47      O      0.112090000000     0.655640000000     0.081660000000    -0.446891   
O48      O      0.052230000000     0.459000000000     0.987760000000    -0.429511   
O49      O      0.156100000000     0.590270000000     0.987300000000    -0.445996   
O50      O      0.069210000000     0.526840000000     0.113530000000    -0.425962   
O51      O      0.060090000000     0.564700000000     0.032000000000    -0.560752   
O52      O      0.975900000000     0.407520000000     0.508440000000    -0.442598   
O53      O      0.023890000000     0.627200000000     0.556790000000    -0.424328   
O54      O      0.914350000000     0.489550000000     0.562450000000    -0.481449   
O55      O      0.010610000000     0.531450000000     0.452240000000    -0.421589   
O56      O      0.955600000000     0.546790000000     0.520350000000    -0.421154   
O57      O      0.033650000000     0.477840000000     0.461450000000    -0.417158   
O58      O      0.030310000000     0.613660000000     0.492500000000    -0.419959   
O59      O      0.922980000000     0.431480000000     0.514640000000    -0.467856   
O60      O      0.099620000000     0.516910000000     0.535340000000    -0.454818   
O61      O      0.992760000000     0.554800000000     0.606370000000    -0.402213   
O62      O      0.965640000000     0.408950000000     0.581600000000    -0.470407   
O63      O      0.113510000000     0.613520000000     0.524130000000    -0.453647   
O64      O      0.082730000000     0.596820000000     0.583710000000    -0.407566   
O65      O      0.044200000000     0.446200000000     0.578480000000    -0.439823   
O66      O      0.108230000000     0.549290000000     0.476160000000    -0.379071   
O67      O      0.973230000000     0.480170000000     0.619910000000    -0.469812   
O68      O      0.016390000000     0.510940000000     0.539370000000    -0.558979   
O69      O      0.468320000000     0.006320000000     0.024570000000    -0.392435   
O70      O      0.562060000000     0.969540000000     0.991280000000    -0.438185   
O71      O      0.561040000000     0.101050000000     0.947310000000    -0.472582   
O72      O      0.497180000000     0.958580000000     0.073680000000    -0.419238   
O73      O      0.557840000000     0.032230000000     0.942790000000    -0.482849   
O74      O      0.466690000000     0.994990000000     0.105920000000    -0.366415   
O75      O      0.580210000000     0.965500000000     0.056240000000    -0.394853   
O76      O      0.493250000000     0.079140000000     0.000470000000    -0.442335   
O77      O      0.562150000000     0.053260000000     0.120290000000    -0.418441   
O78      O      0.651370000000     0.106590000000     0.969220000000    -0.438831   
O79      O      0.572910000000     0.134520000000     0.059560000000    -0.452189   
O80      O      0.640170000000     0.057970000000     0.083120000000    -0.386474   
O81      O      0.652950000000     0.040930000000     0.022400000000    -0.462553   
O82      O      0.501970000000     0.080780000000     0.078160000000    -0.373686   
O83      O      0.571550000000     0.989840000000     0.128070000000    -0.378685   
O84      O      0.632590000000     0.149700000000     0.005930000000    -0.481546   
O85      O      0.567880000000     0.053010000000     0.026190000000    -0.567681   
O86      O      0.431830000000     0.998640000000     0.507320000000    -0.452936   
O87      O      0.592110000000     0.997600000000     0.481020000000    -0.408794   
O88      O      0.523800000000     0.075050000000     0.443170000000    -0.46974    
O89      O      0.458580000000     0.947980000000     0.572380000000    -0.441896   
O90      O      0.512990000000     0.004190000000     0.460680000000    -0.432633   
O91      O      0.410900000000     0.977780000000     0.584060000000    -0.411003   
O92      O      0.521620000000     0.948230000000     0.511240000000    -0.406563   
O93      O      0.458450000000     0.072610000000     0.488470000000    -0.478411   
O94      O      0.499810000000     0.042200000000     0.609460000000    -0.467898   
O95      O      0.607410000000     0.086540000000     0.466170000000    -0.404848   
O96      O      0.530190000000     0.132140000000     0.542980000000    -0.459026   
O97      O      0.600890000000     0.001230000000     0.564720000000    -0.418982   
O98      O      0.622720000000     0.068960000000     0.538050000000    -0.430216   
O99      O      0.458650000000     0.076170000000     0.564660000000    -0.384608   
O100     O      0.545770000000     0.010430000000     0.616030000000    -0.423588   
O101     O      0.596210000000     0.138720000000     0.496650000000    -0.464583   
O102     O      0.531350000000     0.050800000000     0.531660000000    -0.63254    
O103     O      0.496790000000     0.418720000000     0.015750000000    -0.454057   
O104     O      0.568190000000     0.625800000000     0.070880000000    -0.451021   
O105     O      0.456040000000     0.519450000000     0.052060000000    -0.458109   
O106     O      0.533900000000     0.532000000000     0.967300000000    -0.452556   
O107     O      0.492610000000     0.560900000000     0.107240000000    -0.411765   
O108     O      0.565210000000     0.485500000000     0.972610000000    -0.417925   
O109     O      0.538560000000     0.601940000000     0.008440000000    -0.421483   
O110     O      0.455620000000     0.455330000000     0.010970000000    -0.437994   
O111     O      0.620900000000     0.515260000000     0.051190000000    -0.470873   
O112     O      0.554770000000     0.520130000000     0.136040000000    -0.436738   
O113     O      0.475460000000     0.414770000000     0.085620000000    -0.425987   
O114     O      0.631170000000     0.621440000000     0.037220000000    -0.473017   
O115     O      0.630520000000     0.590410000000     0.098600000000    -0.412265   
O116     O      0.554780000000     0.449040000000     0.089820000000    -0.430964   
O117     O      0.635420000000     0.558190000000     0.995680000000    -0.40055    
O118     O      0.475340000000     0.482460000000     0.128060000000    -0.420059   
O119     O      0.542260000000     0.522080000000     0.051570000000    -0.526873   
O120     O      0.477910000000     0.430460000000     0.492700000000    -0.361244   
O121     O      0.516710000000     0.628990000000     0.529560000000    -0.490373   
O122     O      0.423950000000     0.487770000000     0.586550000000    -0.393749   
O123     O      0.578950000000     0.576390000000     0.468520000000    -0.431493   
O124     O      0.452850000000     0.561110000000     0.565760000000    -0.534503   
O125     O      0.501410000000     0.520760000000     0.471950000000    -0.389868   
O126     O      0.590580000000     0.652030000000     0.509950000000    -0.451919   
O127     O      0.436410000000     0.460520000000     0.517320000000    -0.414361   
O128     O      0.571740000000     0.496540000000     0.498520000000    -0.372855   
O129     O      0.514230000000     0.568380000000     0.632100000000    -0.458459   
O130     O      0.445520000000     0.419470000000     0.586860000000    -0.360724   
O131     O      0.630390000000     0.623010000000     0.578110000000    -0.466041   
O132     O      0.581490000000     0.647630000000     0.594380000000    -0.489813   
O133     O      0.521790000000     0.451110000000     0.567680000000    -0.403221   
O134     O      0.618860000000     0.552580000000     0.540800000000    -0.463928   
O135     O      0.511900000000     0.500030000000     0.623730000000    -0.391694   
O136     O      0.532690000000     0.552600000000     0.549840000000    -0.545808   
S1       S      0.559680000000     0.621630000000     0.701720000000    -0.0166522  
S2       S      0.593010000000     0.490580000000     0.205120000000     5.74297e-05
S3       S      0.460440000000     0.872510000000     0.454220000000    -0.00529479 
S4       S      0.398230000000     0.101670000000     0.603170000000    -0.00237714 
S5       S      0.487400000000     0.968410000000     0.885130000000    -0.00321342 
S6       S      0.609000000000     0.121200000000     0.184000000000     0.00332726 
S7       S      0.565600000000     0.905210000000     0.938730000000    -0.0204445  
S8       S      0.440720000000     0.101560000000     0.119660000000     0.00233932 
S9       S      0.872910000000     0.424400000000     0.434590000000    -0.0138306  
S10      S      0.434150000000     0.855570000000     0.590680000000    -0.0116711  
S11      S      0.818720000000     0.418920000000     0.539300000000    -0.0211838  
S12      S      0.196600000000     0.575940000000     0.435800000000    -0.0218019  
S13      S      0.045940000000     0.642740000000     0.888450000000     0.00236715 
S14      S      0.089160000000     0.480080000000     0.177490000000    -0.0118152  
S15      S      0.937510000000     0.437250000000     0.906680000000     0.000868469
S16      S      0.236380000000     0.641350000000     0.110910000000    -0.012602   
S17      S      0.949840000000     0.619210000000     0.103490000000    -0.053332   
S18      S      0.254840000000     0.646980000000     0.977140000000    -0.0148748  
S19      S      0.853640000000     0.877910000000     0.501240000000    -0.0293437  
S20      S      0.195290000000     0.128700000000     0.446400000000    -0.0219567  
S21      S      0.867010000000     0.023050000000     0.451240000000    -0.0226324  
S22      S      0.256610000000     0.145160000000     0.580310000000    -0.0161311  
S23      S      0.946570000000     0.644440000000     0.565670000000     0.00193252 
S24      S      0.097460000000     0.426420000000     0.642570000000    -0.0112645  
S25      S      0.972870000000     0.925290000000     0.912950000000     0.00828863 
S26      S      0.125710000000     0.017450000000     0.190040000000     0.00159442 
S27      S      0.737450000000     0.615760000000     0.114530000000    -0.00981948 
S28      S      0.174510000000     0.240750000000     0.099810000000    -0.0237036  
S29      S      0.968030000000     0.122940000000     0.129750000000    -0.0450885  
S30      S      0.376120000000     0.928660000000     0.005560000000    -1.63586e-05
S31      S      0.977960000000     0.678260000000     0.997270000000    -0.00195242 
S32      S      0.161630000000     0.234490000000     0.966930000000    -0.0192449  


