data_structure

_audit_creation_method RASPA-1.0
_audit_creation_date 2023-5-19
_audit_author_name 'Poobodin Mano'

_cell_length_a    48.944
_cell_length_b    49.0438
_cell_length_c    53.062
_cell_angle_alpha 90
_cell_angle_beta  90
_cell_angle_gamma 90
_cell_volume      127370

_symmetry_cell_setting          triclinic
_symmetry_space_group_name_Hall 'P 1'
_symmetry_space_group_name_H-M  'P 1'
_symmetry_Int_Tables_number     1

_symmetry_equiv_pos_as_xyz 'x,y,z'

loop_
_atom_site_label
_atom_site_type_symbol
_atom_site_fract_x
_atom_site_fract_y
_atom_site_fract_z
_atom_site_charge
C1       C      0.465990000000     0.465090000000     0.026710000000     0.350936   
C2       C      0.064710000000     0.063600000000     0.026780000000     0.350508   
C3       C      0.064670000000     0.465140000000     0.026850000000     0.350494   
C4       C      0.466050000000     0.063550000000     0.026820000000     0.350459   
C5       C      0.468690000000     0.060980000000     0.459340000000     0.344156   
C6       C      0.062070000000     0.467720000000     0.459370000000     0.344383   
C7       C      0.468770000000     0.467760000000     0.459260000000     0.343762   
C8       C      0.062020000000     0.060960000000     0.459330000000     0.344298   
C9       C      0.314650000000     0.313560000000     0.212960000000     0.351154   
C10      C      0.216050000000     0.215120000000     0.213060000000     0.350912   
C11      C      0.314680000000     0.215050000000     0.213070000000     0.350851   
C12      C      0.216040000000     0.313640000000     0.213110000000     0.350961   
C13      C      0.218750000000     0.310940000000     0.280550000000     0.343983   
C14      C      0.312070000000     0.217820000000     0.280530000000     0.343825   
C15      C      0.312120000000     0.310970000000     0.280440000000     0.344029   
C16      C      0.218690000000     0.217760000000     0.280530000000     0.343983   
C17      C      0.080710000000     0.079590000000     0.045330000000    -0.100197   
C18      C      0.070770000000     0.104580000000     0.054530000000     0.0230766  
C19      C      0.085490000000     0.119280000000     0.072540000000    -0.068017   
C20      C      0.110470000000     0.109320000000     0.081810000000     0.0299361  
C21      C      0.120520000000     0.084440000000     0.072480000000    -0.0679944  
C22      C      0.105830000000     0.069750000000     0.054450000000     0.0231034  
C23      C      0.125870000000     0.124720000000     0.101300000000     0.000319226
C24      C      0.128100000000     0.153250000000     0.099900000000    -0.0370778  
C25      C      0.142470000000     0.167730000000     0.118310000000    -0.0371405  
C26      C      0.154940000000     0.154000000000     0.138530000000     0.000343009
C27      C      0.152710000000     0.125460000000     0.139920000000    -0.0371974  
C28      C      0.138340000000     0.110990000000     0.121510000000    -0.0370643  
C29      C      0.170330000000     0.169400000000     0.158010000000     0.0299728  
C30      C      0.160270000000     0.194270000000     0.167340000000    -0.0680633  
C31      C      0.174950000000     0.208970000000     0.185380000000     0.0232299  
C32      C      0.200070000000     0.199140000000     0.194510000000    -0.100496   
C33      C      0.210020000000     0.174130000000     0.185320000000     0.0231195  
C34      C      0.195310000000     0.159440000000     0.167290000000    -0.0680496  
C35      C      0.077470000000     0.076420000000     0.439990000000    -0.0983865  
C36      C      0.067520000000     0.101440000000     0.430840000000     0.0215477  
C37      C      0.082650000000     0.116620000000     0.413460000000    -0.0676338  
C38      C      0.108060000000     0.107130000000     0.404770000000     0.0292752  
C39      C      0.117800000000     0.081900000000     0.413590000000    -0.0675184  
C40      C      0.102690000000     0.066730000000     0.430990000000     0.0216028  
C41      C      0.124520000000     0.123650000000     0.386840000000     0.000380053
C42      C      0.126570000000     0.152070000000     0.389770000000    -0.0371652  
C43      C      0.142200000000     0.167610000000     0.373050000000    -0.0372723  
C44      C      0.156150000000     0.155090000000     0.352990000000     0.000362306
C45      C      0.154100000000     0.126660000000     0.350060000000    -0.0371863  
C46      C      0.138470000000     0.111120000000     0.366790000000    -0.0372896  
C47      C      0.172620000000     0.171600000000     0.335070000000     0.0293092  
C48      C      0.162890000000     0.196820000000     0.326240000000    -0.0674894  
C49      C      0.178010000000     0.212000000000     0.308840000000     0.0215559  
C50      C      0.203240000000     0.202310000000     0.299860000000    -0.0982873  
C51      C      0.213180000000     0.177280000000     0.309010000000     0.021499   
C52      C      0.198030000000     0.162110000000     0.326390000000    -0.067567   
C53      C      0.200050000000     0.329650000000     0.194570000000    -0.100389   
C54      C      0.209950000000     0.354720000000     0.185500000000     0.0231882  
C55      C      0.195260000000     0.369440000000     0.167480000000    -0.0680941  
C56      C      0.170330000000     0.359460000000     0.158120000000     0.0300181  
C57      C      0.160290000000     0.334530000000     0.167350000000    -0.0680654  
C58      C      0.174990000000     0.319780000000     0.185350000000     0.0231612  
C59      C      0.154950000000     0.374880000000     0.138640000000     0.000294999
C60      C      0.126360000000     0.377160000000     0.140010000000    -0.037136   
C61      C      0.111910000000     0.391580000000     0.121620000000    -0.0370362  
C62      C      0.125710000000     0.404030000000     0.101430000000     0.000321821
C63      C      0.154300000000     0.401750000000     0.100070000000    -0.0371184  
C64      C      0.168750000000     0.387340000000     0.118460000000    -0.0369989  
C65      C      0.110340000000     0.419430000000     0.081940000000     0.0299337  
C66      C      0.120360000000     0.444360000000     0.072690000000    -0.0679862  
C67      C      0.105680000000     0.459060000000     0.054660000000     0.0231988  
C68      C      0.080640000000     0.449170000000     0.045420000000    -0.100281   
C69      C      0.070730000000     0.424110000000     0.054530000000     0.0231093  
C70      C      0.085410000000     0.409430000000     0.072570000000    -0.0679622  
C71      C      0.450070000000     0.079520000000     0.045390000000    -0.100212   
C72      C      0.425020000000     0.069610000000     0.054620000000     0.0231079  
C73      C      0.410340000000     0.084300000000     0.072650000000    -0.0680308  
C74      C      0.420350000000     0.109230000000     0.081910000000     0.0299667  
C75      C      0.445270000000     0.119250000000     0.072540000000    -0.0679625  
C76      C      0.459960000000     0.104580000000     0.054490000000     0.0231505  
C77      C      0.404970000000     0.124620000000     0.101400000000     0.000280997
C78      C      0.376390000000     0.126890000000     0.100050000000    -0.037011   
C79      C      0.361930000000     0.141300000000     0.118440000000    -0.0371232  
C80      C      0.375730000000     0.153760000000     0.138620000000     0.000357375
C81      C      0.404320000000     0.151490000000     0.139980000000    -0.0371304  
C82      C      0.418770000000     0.137080000000     0.121590000000    -0.0370035  
C83      C      0.360360000000     0.169200000000     0.158100000000     0.0299607  
C84      C      0.335430000000     0.159230000000     0.167470000000    -0.0679635  
C85      C      0.320750000000     0.173950000000     0.185490000000     0.0232105  
C86      C      0.330660000000     0.199020000000     0.194550000000    -0.100467   
C87      C      0.355720000000     0.208880000000     0.185310000000     0.0232018  
C88      C      0.370390000000     0.194140000000     0.167310000000    -0.0680726  
C89      C      0.453360000000     0.452310000000     0.439900000000    -0.0982404  
C90      C      0.428140000000     0.462000000000     0.430890000000     0.0216922  
C91      C      0.413050000000     0.446830000000     0.413470000000    -0.0674493  
C92      C      0.422800000000     0.421620000000     0.404650000000     0.0294795  
C93      C      0.448210000000     0.412120000000     0.413350000000    -0.0675669  
C94      C      0.463320000000     0.427290000000     0.430760000000     0.0216725  
C95      C      0.406360000000     0.405100000000     0.386700000000     0.000412046
C96      C      0.392410000000     0.417620000000     0.366640000000    -0.0370509  
C97      C      0.376790000000     0.402090000000     0.349910000000    -0.0371277  
C98      C      0.374730000000     0.373670000000     0.352840000000     0.000544844
C99      C      0.388700000000     0.361140000000     0.372890000000    -0.0371947  
C100     C      0.404310000000     0.376670000000     0.389620000000    -0.0369725  
C101     C      0.358270000000     0.357150000000     0.334910000000     0.0293462  
C102     C      0.332840000000     0.366650000000     0.326250000000    -0.0674213  
C103     C      0.317680000000     0.351470000000     0.308890000000     0.0216345  
C104     C      0.327600000000     0.326440000000     0.299740000000    -0.0982129  
C105     C      0.352840000000     0.316740000000     0.308710000000     0.0215828  
C106     C      0.367980000000     0.331920000000     0.326090000000    -0.0673551  
C107     C      0.453230000000     0.076440000000     0.440020000000    -0.0983331  
C108     C      0.428080000000     0.066640000000     0.430930000000     0.021539   
C109     C      0.412930000000     0.081810000000     0.413560000000    -0.0674683  
C110     C      0.422570000000     0.107110000000     0.404830000000     0.0292962  
C111     C      0.447910000000     0.116700000000     0.413590000000    -0.0674192  
C112     C      0.463070000000     0.101550000000     0.430980000000     0.0216046  
C113     C      0.406080000000     0.123610000000     0.386900000000     0.000446193
C114     C      0.377610000000     0.125840000000     0.389880000000    -0.0371973  
C115     C      0.362120000000     0.141500000000     0.373160000000    -0.0371509  
C116     C      0.374700000000     0.155320000000     0.353060000000     0.00042423 
C117     C      0.403170000000     0.153100000000     0.350080000000    -0.0371751  
C118     C      0.418670000000     0.137430000000     0.366810000000    -0.0372283  
C119     C      0.358210000000     0.171780000000     0.335120000000     0.0292371  
C120     C      0.332870000000     0.162180000000     0.326360000000    -0.0673917  
C121     C      0.317710000000     0.177290000000     0.308950000000     0.0215364  
C122     C      0.327540000000     0.202390000000     0.299880000000    -0.0980659  
C123     C      0.352680000000     0.212210000000     0.308950000000     0.0214916  
C124     C      0.367840000000     0.197080000000     0.326340000000    -0.0673774  
C125     C      0.203330000000     0.326390000000     0.299910000000    -0.0981494  
C126     C      0.178110000000     0.316690000000     0.308920000000     0.0215075  
C127     C      0.163000000000     0.331860000000     0.326330000000    -0.067391   
C128     C      0.172730000000     0.357080000000     0.335150000000     0.029283   
C129     C      0.198140000000     0.366580000000     0.326440000000    -0.0673893  
C130     C      0.213270000000     0.351420000000     0.309050000000     0.0215282  
C131     C      0.156290000000     0.373600000000     0.353090000000     0.000455047
C132     C      0.142340000000     0.361070000000     0.373150000000    -0.0371968  
C133     C      0.126710000000     0.376610000000     0.389880000000    -0.0371226  
C134     C      0.124650000000     0.405030000000     0.386940000000     0.000456904
C135     C      0.138590000000     0.417550000000     0.366880000000    -0.0372015  
C136     C      0.154210000000     0.402020000000     0.350150000000    -0.0370881  
C137     C      0.108170000000     0.421540000000     0.404870000000     0.0293529  
C138     C      0.082770000000     0.412040000000     0.413560000000    -0.0674818  
C139     C      0.067610000000     0.427210000000     0.430930000000     0.0215983  
C140     C      0.077540000000     0.452250000000     0.440050000000    -0.0983396  
C141     C      0.102760000000     0.461950000000     0.431070000000     0.0216179  
C142     C      0.117890000000     0.446770000000     0.413680000000    -0.0674787  
C143     C      0.449960000000     0.449090000000     0.045230000000    -0.100261   
C144     C      0.424830000000     0.458930000000     0.054330000000     0.0231697  
C145     C      0.410120000000     0.444220000000     0.072330000000    -0.0679113  
C146     C      0.420160000000     0.419330000000     0.081660000000     0.029956   
C147     C      0.445150000000     0.409370000000     0.072400000000    -0.0680281  
C148     C      0.459890000000     0.424080000000     0.054420000000     0.0231891  
C149     C      0.404740000000     0.403940000000     0.101130000000     0.000413331
C150     C      0.392270000000     0.417670000000     0.121350000000    -0.0371064  
C151     C      0.377900000000     0.403190000000     0.139750000000    -0.0370697  
C152     C      0.375670000000     0.374660000000     0.138350000000     0.000328556
C153     C      0.388130000000     0.360930000000     0.118130000000    -0.0370514  
C154     C      0.402510000000     0.375410000000     0.099720000000    -0.0371374  
C155     C      0.360290000000     0.359250000000     0.157850000000     0.0300948  
C156     C      0.335320000000     0.369210000000     0.167140000000    -0.0680936  
C157     C      0.320630000000     0.354520000000     0.185180000000     0.023279   
C158     C      0.330600000000     0.329530000000     0.194380000000    -0.10068    
C159     C      0.355700000000     0.319700000000     0.185230000000     0.0234614  
C160     C      0.370370000000     0.334380000000     0.167170000000    -0.0682223  
Co1      Co     0.474890000000     0.014340000000     0.494910000000     0.832061   
Co2      Co     0.055860000000     0.014350000000     0.494940000000     0.832064   
Co3      Co     0.015380000000     0.473960000000     0.494950000000     0.833101   
Co4      Co     0.015370000000     0.054750000000     0.494950000000     0.833116   
Co5      Co     0.265380000000     0.304730000000     0.244910000000     0.833659   
Co6      Co     0.265380000000     0.223970000000     0.244940000000     0.833619   
Co7      Co     0.305880000000     0.264350000000     0.244860000000     0.833065   
Co8      Co     0.224880000000     0.264370000000     0.244910000000     0.832738   
H1       H      0.051460000000     0.112740000000     0.048010000000     0.0403331  
H2       H      0.077020000000     0.138220000000     0.079560000000     0.0471499  
H3       H      0.139890000000     0.076400000000     0.078980000000     0.0473046  
H4       H      0.114140000000     0.050600000000     0.047770000000     0.0404225  
H5       H      0.119070000000     0.164400000000     0.084370000000     0.0389474  
H6       H      0.144170000000     0.189650000000     0.116470000000     0.0389629  
H7       H      0.161740000000     0.114320000000     0.155440000000     0.0389026  
H8       H      0.136640000000     0.089060000000     0.123350000000     0.0388335  
H9       H      0.140910000000     0.202320000000     0.160830000000     0.0473131  
H10      H      0.166630000000     0.228120000000     0.192060000000     0.0403884  
H11      H      0.229330000000     0.165980000000     0.191840000000     0.0403334  
H12      H      0.203780000000     0.140500000000     0.160280000000     0.047178   
H13      H      0.048110000000     0.109480000000     0.437240000000     0.0406043  
H14      H      0.074370000000     0.135760000000     0.406740000000     0.046761   
H15      H      0.137430000000     0.074140000000     0.407470000000     0.0468355  
H16      H      0.111000000000     0.047550000000     0.437620000000     0.0406451  
H17      H      0.116450000000     0.162300000000     0.405270000000     0.0388837  
H18      H      0.143670000000     0.189400000000     0.376050000000     0.038438   
H19      H      0.164230000000     0.116430000000     0.334570000000     0.038871   
H20      H      0.137010000000     0.089330000000     0.363780000000     0.0383869  
H21      H      0.143270000000     0.204600000000     0.332350000000     0.0468671  
H22      H      0.169710000000     0.231180000000     0.302220000000     0.0407361  
H23      H      0.232590000000     0.169240000000     0.302620000000     0.0407092  
H24      H      0.206310000000     0.142970000000     0.333110000000     0.0467917  
H25      H      0.229140000000     0.362980000000     0.192200000000     0.0403945  
H26      H      0.203360000000     0.388760000000     0.161010000000     0.0473115  
H27      H      0.141310000000     0.326120000000     0.160310000000     0.0472522  
H28      H      0.166780000000     0.300510000000     0.191840000000     0.0403485  
H29      H      0.115160000000     0.368150000000     0.155520000000     0.0389654  
H30      H      0.089930000000     0.393320000000     0.123440000000     0.0388712  
H31      H      0.165500000000     0.410760000000     0.084560000000     0.0390675  
H32      H      0.190730000000     0.385590000000     0.116640000000     0.0389468  
H33      H      0.139340000000     0.452780000000     0.079740000000     0.0472523  
H34      H      0.113890000000     0.478330000000     0.048150000000     0.0404264  
H35      H      0.051550000000     0.415840000000     0.047810000000     0.0404063  
H36      H      0.077310000000     0.390110000000     0.079060000000     0.0472589  
H37      H      0.416830000000     0.050330000000     0.048110000000     0.0403292  
H38      H      0.391370000000     0.075870000000     0.079700000000     0.0472014  
H39      H      0.453360000000     0.138570000000     0.079030000000     0.0473462  
H40      H      0.479140000000     0.112860000000     0.047780000000     0.0405129  
H41      H      0.365180000000     0.117870000000     0.084540000000     0.0389639  
H42      H      0.339960000000     0.143030000000     0.116630000000     0.0389701  
H43      H      0.415520000000     0.160510000000     0.155490000000     0.0389438  
H44      H      0.440750000000     0.135340000000     0.123410000000     0.0388822  
H45      H      0.327320000000     0.139890000000     0.161010000000     0.0472352  
H46      H      0.301560000000     0.165690000000     0.192200000000     0.0403908  
H47      H      0.363920000000     0.228160000000     0.191790000000     0.0403346  
H48      H      0.389370000000     0.202540000000     0.160250000000     0.0472482  
H49      H      0.419820000000     0.481180000000     0.437510000000     0.0407857  
H50      H      0.393430000000     0.454600000000     0.407340000000     0.0470797  
H51      H      0.456500000000     0.392990000000     0.406630000000     0.0470354  
H52      H      0.482730000000     0.419250000000     0.437170000000     0.0407476  
H53      H      0.393880000000     0.439420000000     0.363640000000     0.0386683  
H54      H      0.366670000000     0.412320000000     0.334420000000     0.0390964  
H55      H      0.387220000000     0.339350000000     0.375890000000     0.0387253  
H56      H      0.414430000000     0.366440000000     0.405120000000     0.0390453  
H57      H      0.324570000000     0.385800000000     0.332980000000     0.0469701  
H58      H      0.298260000000     0.359520000000     0.302510000000     0.0407693  
H59      H      0.361130000000     0.297570000000     0.302080000000     0.0408245  
H60      H      0.387610000000     0.324150000000     0.332190000000     0.047053   
H61      H      0.419940000000     0.047320000000     0.437370000000     0.0406696  
H62      H      0.393680000000     0.073650000000     0.406870000000     0.0467948  
H63      H      0.455800000000     0.136230000000     0.407430000000     0.0469564  
H64      H      0.482350000000     0.109740000000     0.437560000000     0.0407656  
H65      H      0.367340000000     0.115820000000     0.405400000000     0.0390463  
H66      H      0.340290000000     0.143100000000     0.376190000000     0.0385983  
H67      H      0.413450000000     0.163110000000     0.334560000000     0.0390465  
H68      H      0.440490000000     0.135830000000     0.363770000000     0.0386266  
H69      H      0.324990000000     0.142660000000     0.332540000000     0.0469419  
H70      H      0.298430000000     0.169080000000     0.302380000000     0.0407929  
H71      H      0.360830000000     0.231520000000     0.302490000000     0.0407571  
H72      H      0.387090000000     0.205250000000     0.333020000000     0.0468251  
H73      H      0.169800000000     0.297510000000     0.302290000000     0.0407755  
H74      H      0.143380000000     0.324080000000     0.332460000000     0.0468737  
H75      H      0.206420000000     0.385730000000     0.333160000000     0.0469236  
H76      H      0.232670000000     0.359460000000     0.302640000000     0.0407982  
H77      H      0.143820000000     0.339280000000     0.376160000000     0.0384887  
H78      H      0.116590000000     0.366370000000     0.405370000000     0.0389612  
H79      H      0.137110000000     0.439340000000     0.363880000000     0.0384882  
H80      H      0.164330000000     0.412250000000     0.334650000000     0.0389617  
H81      H      0.074500000000     0.392880000000     0.406850000000     0.0468764  
H82      H      0.048200000000     0.419160000000     0.437320000000     0.0406546  
H83      H      0.111050000000     0.481140000000     0.437680000000     0.040744   
H84      H      0.137510000000     0.454550000000     0.407560000000     0.046927   
H85      H      0.416530000000     0.478080000000     0.047650000000     0.0404962  
H86      H      0.390750000000     0.452270000000     0.078830000000     0.0473569  
H87      H      0.453600000000     0.390430000000     0.079420000000     0.0472623  
H88      H      0.479210000000     0.415920000000     0.047910000000     0.0404081  
H89      H      0.393990000000     0.439590000000     0.123200000000     0.0389642  
H90      H      0.368880000000     0.414320000000     0.155290000000     0.0389584  
H91      H      0.386420000000     0.339010000000     0.116280000000     0.0389913  
H92      H      0.411530000000     0.364270000000     0.084190000000     0.0390529  
H93      H      0.326840000000     0.388150000000     0.160120000000     0.0472173  
H94      H      0.301330000000     0.362680000000     0.191720000000     0.0403127  
H95      H      0.364040000000     0.300550000000     0.191910000000     0.0403535  
H96      H      0.389720000000     0.326340000000     0.160650000000     0.0474339  
O1       O      0.456710000000     0.487970000000     0.019060000000    -0.352616   
O2       O      0.074010000000     0.040720000000     0.019130000000    -0.35239    
O3       O      0.041730000000     0.455880000000     0.019200000000    -0.352635   
O4       O      0.488990000000     0.072820000000     0.019180000000    -0.352564   
O5       O      0.073970000000     0.488020000000     0.019190000000    -0.352307   
O6       O      0.456760000000     0.040670000000     0.019150000000    -0.352403   
O7       O      0.041760000000     0.072850000000     0.019150000000    -0.352674   
O8       O      0.488950000000     0.455850000000     0.019110000000    -0.352788   
O9       O      0.458870000000     0.038610000000     0.467710000000    -0.356587   
O10      O      0.071900000000     0.490080000000     0.467750000000    -0.356588   
O11      O      0.491180000000     0.457990000000     0.467680000000    -0.35654    
O12      O      0.039610000000     0.070730000000     0.467710000000    -0.356987   
O13      O      0.071860000000     0.038610000000     0.467720000000    -0.356704   
O14      O      0.458930000000     0.490120000000     0.467660000000    -0.356361   
O15      O      0.491100000000     0.070750000000     0.467740000000    -0.356725   
O16      O      0.039660000000     0.457960000000     0.467750000000    -0.35695    
O17      O      0.015370000000     0.014350000000     0.005280000000    -0.584627   
O18      O      0.291720000000     0.322820000000     0.220640000000    -0.353072   
O19      O      0.238990000000     0.205860000000     0.220710000000    -0.352953   
O20      O      0.323980000000     0.237950000000     0.220680000000    -0.353071   
O21      O      0.206750000000     0.290750000000     0.220730000000    -0.353197   
O22      O      0.291750000000     0.205810000000     0.220750000000    -0.353114   
O23      O      0.238990000000     0.322880000000     0.220740000000    -0.353193   
O24      O      0.206760000000     0.238000000000     0.220700000000    -0.353075   
O25      O      0.323950000000     0.290690000000     0.220600000000    -0.353283   
O26      O      0.241180000000     0.320710000000     0.272170000000    -0.356693   
O27      O      0.289640000000     0.208020000000     0.272170000000    -0.356595   
O28      O      0.321950000000     0.288620000000     0.272030000000    -0.356454   
O29      O      0.208850000000     0.240110000000     0.272120000000    -0.356347   
O30      O      0.241120000000     0.208000000000     0.272160000000    -0.356777   
O31      O      0.289680000000     0.320730000000     0.272090000000    -0.356686   
O32      O      0.208890000000     0.288610000000     0.272150000000    -0.356604   
O33      O      0.321900000000     0.240150000000     0.272090000000    -0.356674   
O34      O      0.265370000000     0.264350000000     0.234560000000    -0.585594   
C161     C      0.465990000000     0.465090000000     0.526710000000     0.351082   
C162     C      0.064710000000     0.063600000000     0.526790000000     0.350617   
C163     C      0.064670000000     0.465140000000     0.526850000000     0.350646   
C164     C      0.466050000000     0.063550000000     0.526820000000     0.350665   
C165     C      0.468690000000     0.060980000000     0.959340000000     0.344039   
C166     C      0.062070000000     0.467720000000     0.959370000000     0.344263   
C167     C      0.468770000000     0.467760000000     0.959270000000     0.343832   
C168     C      0.062020000000     0.060960000000     0.959330000000     0.344107   
C169     C      0.314650000000     0.313560000000     0.712960000000     0.351155   
C170     C      0.216050000000     0.215120000000     0.713060000000     0.350911   
C171     C      0.314680000000     0.215050000000     0.713080000000     0.350948   
C172     C      0.216040000000     0.313640000000     0.713110000000     0.351029   
C173     C      0.218750000000     0.310940000000     0.780550000000     0.343978   
C174     C      0.312070000000     0.217820000000     0.780530000000     0.34382    
C175     C      0.312120000000     0.310970000000     0.780440000000     0.344028   
C176     C      0.218690000000     0.217760000000     0.780530000000     0.343982   
C177     C      0.080710000000     0.079590000000     0.545330000000    -0.100431   
C178     C      0.070770000000     0.104580000000     0.554530000000     0.0231347  
C179     C      0.085490000000     0.119280000000     0.572540000000    -0.0680992  
C180     C      0.110470000000     0.109320000000     0.581810000000     0.0299643  
C181     C      0.120520000000     0.084440000000     0.572480000000    -0.0680774  
C182     C      0.105830000000     0.069750000000     0.554450000000     0.0231572  
C183     C      0.125870000000     0.124720000000     0.601300000000     0.000248222
C184     C      0.128100000000     0.153250000000     0.599910000000    -0.0370157  
C185     C      0.142470000000     0.167730000000     0.618310000000    -0.0371903  
C186     C      0.154940000000     0.154000000000     0.638530000000     0.000354281
C187     C      0.152710000000     0.125460000000     0.639920000000    -0.0372232  
C188     C      0.138340000000     0.110990000000     0.621510000000    -0.0370403  
C189     C      0.170330000000     0.169400000000     0.658020000000     0.0299773  
C190     C      0.160270000000     0.194270000000     0.667340000000    -0.0680778  
C191     C      0.174950000000     0.208970000000     0.685380000000     0.0232302  
C192     C      0.200070000000     0.199140000000     0.694510000000    -0.100496   
C193     C      0.210020000000     0.174130000000     0.685320000000     0.0231136  
C194     C      0.195310000000     0.159440000000     0.667290000000    -0.0680434  
C195     C      0.077470000000     0.076420000000     0.939980000000    -0.0983133  
C196     C      0.067520000000     0.101440000000     0.930850000000     0.0214579  
C197     C      0.082650000000     0.116620000000     0.913460000000    -0.0676174  
C198     C      0.108060000000     0.107130000000     0.904770000000     0.0292337  
C199     C      0.117800000000     0.081900000000     0.913590000000    -0.0675179  
C200     C      0.102690000000     0.066730000000     0.930990000000     0.0215269  
C201     C      0.124520000000     0.123650000000     0.886840000000     0.00037035 
C202     C      0.126570000000     0.152070000000     0.889770000000    -0.0371846  
C203     C      0.142200000000     0.167610000000     0.873050000000    -0.0372902  
C204     C      0.156150000000     0.155090000000     0.852990000000     0.000356294
C205     C      0.154100000000     0.126660000000     0.850060000000    -0.0371917  
C206     C      0.138470000000     0.111120000000     0.866790000000    -0.0372956  
C207     C      0.172620000000     0.171600000000     0.835070000000     0.0293008  
C208     C      0.162890000000     0.196820000000     0.826240000000    -0.0674898  
C209     C      0.178010000000     0.212000000000     0.808840000000     0.0215509  
C210     C      0.203240000000     0.202310000000     0.799860000000    -0.0982865  
C211     C      0.213180000000     0.177280000000     0.809010000000     0.0214942  
C212     C      0.198030000000     0.162110000000     0.826390000000    -0.0675697  
C213     C      0.200050000000     0.329650000000     0.694580000000    -0.100471   
C214     C      0.209950000000     0.354720000000     0.685500000000     0.0232215  
C215     C      0.195260000000     0.369440000000     0.667480000000    -0.0681121  
C216     C      0.170330000000     0.359460000000     0.658120000000     0.0300219  
C217     C      0.160290000000     0.334530000000     0.667350000000    -0.0680692  
C218     C      0.174990000000     0.319780000000     0.685360000000     0.0231738  
C219     C      0.154950000000     0.374880000000     0.638640000000     0.000273695
C220     C      0.126360000000     0.377160000000     0.640010000000    -0.037138   
C221     C      0.111910000000     0.391580000000     0.621620000000    -0.0370357  
C222     C      0.125710000000     0.404030000000     0.601430000000     0.000289803
C223     C      0.154300000000     0.401750000000     0.600070000000    -0.0371194  
C224     C      0.168750000000     0.387340000000     0.618450000000    -0.0370142  
C225     C      0.110340000000     0.419430000000     0.581940000000     0.0299377  
C226     C      0.120360000000     0.444360000000     0.572690000000    -0.0680459  
C227     C      0.105680000000     0.459060000000     0.554660000000     0.0232213  
C228     C      0.080640000000     0.449170000000     0.545420000000    -0.100444   
C229     C      0.070730000000     0.424110000000     0.554530000000     0.0231287  
C230     C      0.085410000000     0.409430000000     0.572570000000    -0.0680239  
C231     C      0.450070000000     0.079520000000     0.545390000000    -0.100377   
C232     C      0.425020000000     0.069610000000     0.554620000000     0.0231218  
C233     C      0.410340000000     0.084300000000     0.572660000000    -0.0681135  
C234     C      0.420350000000     0.109230000000     0.581910000000     0.0299858  
C235     C      0.445270000000     0.119250000000     0.572540000000    -0.0680321  
C236     C      0.459960000000     0.104580000000     0.554490000000     0.0231741  
C237     C      0.404970000000     0.124620000000     0.601410000000     0.000262606
C238     C      0.376390000000     0.126890000000     0.600050000000    -0.0370272  
C239     C      0.361930000000     0.141300000000     0.618440000000    -0.0371519  
C240     C      0.375730000000     0.153760000000     0.638620000000     0.000387579
C241     C      0.404320000000     0.151490000000     0.639990000000    -0.037204   
C242     C      0.418770000000     0.137080000000     0.621590000000    -0.0369893  
C243     C      0.360360000000     0.169200000000     0.658100000000     0.0299429  
C244     C      0.335430000000     0.159230000000     0.667460000000    -0.0679392  
C245     C      0.320750000000     0.173950000000     0.685490000000     0.0231538  
C246     C      0.330660000000     0.199020000000     0.694550000000    -0.100392   
C247     C      0.355720000000     0.208880000000     0.685310000000     0.0231654  
C248     C      0.370390000000     0.194140000000     0.667310000000    -0.0680593  
C249     C      0.453360000000     0.452310000000     0.939910000000    -0.0982924  
C250     C      0.428140000000     0.462000000000     0.930890000000     0.0216642  
C251     C      0.413050000000     0.446830000000     0.913470000000    -0.0674698  
C252     C      0.422800000000     0.421620000000     0.904650000000     0.0294387  
C253     C      0.448210000000     0.412120000000     0.913360000000    -0.067569   
C254     C      0.463320000000     0.427290000000     0.930760000000     0.0216533  
C255     C      0.406360000000     0.405100000000     0.886700000000     0.000401006
C256     C      0.392410000000     0.417620000000     0.866640000000    -0.0370644  
C257     C      0.376790000000     0.402090000000     0.849910000000    -0.0371298  
C258     C      0.374730000000     0.373670000000     0.852840000000     0.00054383 
C259     C      0.388700000000     0.361140000000     0.872890000000    -0.0372154  
C260     C      0.404310000000     0.376670000000     0.889620000000    -0.0369907  
C261     C      0.358270000000     0.357150000000     0.834910000000     0.0293143  
C262     C      0.332840000000     0.366650000000     0.826250000000    -0.0674138  
C263     C      0.317680000000     0.351470000000     0.808890000000     0.0216259  
C264     C      0.327600000000     0.326440000000     0.799740000000    -0.0982139  
C265     C      0.352840000000     0.316740000000     0.808710000000     0.0215867  
C266     C      0.367980000000     0.331920000000     0.826080000000    -0.0673305  
C267     C      0.453230000000     0.076440000000     0.940020000000    -0.0983413  
C268     C      0.428080000000     0.066640000000     0.930930000000     0.0214902  
C269     C      0.412930000000     0.081810000000     0.913560000000    -0.0674637  
C270     C      0.422570000000     0.107110000000     0.904820000000     0.0292429  
C271     C      0.447910000000     0.116700000000     0.913590000000    -0.0674171  
C272     C      0.463070000000     0.101550000000     0.930980000000     0.0215558  
C273     C      0.406080000000     0.123610000000     0.886900000000     0.00043609 
C274     C      0.377610000000     0.125840000000     0.889880000000    -0.0372155  
C275     C      0.362120000000     0.141500000000     0.873160000000    -0.0371692  
C276     C      0.374700000000     0.155320000000     0.853060000000     0.000418185
C277     C      0.403170000000     0.153100000000     0.850080000000    -0.0371803  
C278     C      0.418670000000     0.137430000000     0.866810000000    -0.0372344  
C279     C      0.358210000000     0.171780000000     0.835120000000     0.0292285  
C280     C      0.332870000000     0.162180000000     0.826360000000    -0.0673925  
C281     C      0.317710000000     0.177290000000     0.808950000000     0.0215307  
C282     C      0.327540000000     0.202390000000     0.799880000000    -0.0980663  
C283     C      0.352680000000     0.212210000000     0.808950000000     0.0214861  
C284     C      0.367840000000     0.197080000000     0.826340000000    -0.0673804  
C285     C      0.203330000000     0.326390000000     0.799910000000    -0.0981357  
C286     C      0.178110000000     0.316690000000     0.808920000000     0.0214892  
C287     C      0.163000000000     0.331860000000     0.826330000000    -0.0673771  
C288     C      0.172730000000     0.357080000000     0.835150000000     0.0292489  
C289     C      0.198140000000     0.366580000000     0.826440000000    -0.0673573  
C290     C      0.213270000000     0.351420000000     0.809050000000     0.0215068  
C291     C      0.156290000000     0.373600000000     0.853090000000     0.000481664
C292     C      0.142340000000     0.361070000000     0.873140000000    -0.0372444  
C293     C      0.126710000000     0.376610000000     0.889880000000    -0.0370954  
C294     C      0.124650000000     0.405030000000     0.886940000000     0.000417604
C295     C      0.138590000000     0.417550000000     0.866880000000    -0.0371892  
C296     C      0.154210000000     0.402020000000     0.850150000000    -0.0371143  
C297     C      0.108170000000     0.421540000000     0.904870000000     0.0293414  
C298     C      0.082770000000     0.412040000000     0.913560000000    -0.0675062  
C299     C      0.067610000000     0.427210000000     0.930930000000     0.0215619  
C300     C      0.077540000000     0.452250000000     0.940050000000    -0.0983581  
C301     C      0.102760000000     0.461950000000     0.931070000000     0.0215816  
C302     C      0.117890000000     0.446770000000     0.913680000000    -0.0675061  
C303     C      0.449960000000     0.449090000000     0.545230000000    -0.100401   
C304     C      0.424830000000     0.458930000000     0.554320000000     0.0231686  
C305     C      0.410120000000     0.444220000000     0.572330000000    -0.0679626  
C306     C      0.420160000000     0.419330000000     0.581660000000     0.0299769  
C307     C      0.445150000000     0.409370000000     0.572410000000    -0.0680912  
C308     C      0.459890000000     0.424080000000     0.554410000000     0.0231734  
C309     C      0.404740000000     0.403940000000     0.601130000000     0.000348065
C310     C      0.392270000000     0.417670000000     0.621350000000    -0.0370916  
C311     C      0.377900000000     0.403190000000     0.639750000000    -0.0370846  
C312     C      0.375670000000     0.374660000000     0.638350000000     0.000333893
C313     C      0.388130000000     0.360930000000     0.618130000000    -0.0370971  
C314     C      0.402510000000     0.375410000000     0.599730000000    -0.0370782  
C315     C      0.360290000000     0.359250000000     0.657850000000     0.0300966  
C316     C      0.335320000000     0.369210000000     0.667140000000    -0.068123   
C317     C      0.320630000000     0.354520000000     0.685180000000     0.0232859  
C318     C      0.330600000000     0.329530000000     0.694380000000    -0.100682   
C319     C      0.355700000000     0.319700000000     0.685230000000     0.0234615  
C320     C      0.370370000000     0.334380000000     0.667170000000    -0.0682262  
Co9      Co     0.474890000000     0.014340000000     0.994910000000     0.830825   
Co10     Co     0.055860000000     0.014350000000     0.994940000000     0.83076    
Co11     Co     0.015380000000     0.473960000000     0.994950000000     0.831797   
Co12     Co     0.015370000000     0.054750000000     0.994950000000     0.831878   
Co13     Co     0.265380000000     0.304730000000     0.744910000000     0.833665   
Co14     Co     0.265380000000     0.223970000000     0.744940000000     0.833628   
Co15     Co     0.305880000000     0.264350000000     0.744860000000     0.833074   
Co16     Co     0.224880000000     0.264370000000     0.744910000000     0.832744   
H97      H      0.051460000000     0.112740000000     0.548010000000     0.040242   
H98      H      0.077020000000     0.138220000000     0.579560000000     0.0471298  
H99      H      0.139890000000     0.076400000000     0.578980000000     0.047275   
H100     H      0.114140000000     0.050600000000     0.547770000000     0.0403248  
H101     H      0.119070000000     0.164400000000     0.584370000000     0.0388463  
H102     H      0.144170000000     0.189650000000     0.616470000000     0.0389339  
H103     H      0.161740000000     0.114320000000     0.655440000000     0.0389104  
H104     H      0.136640000000     0.089060000000     0.623350000000     0.0388252  
H105     H      0.140910000000     0.202320000000     0.660830000000     0.0473106  
H106     H      0.166630000000     0.228120000000     0.692060000000     0.0403878  
H107     H      0.229330000000     0.165980000000     0.691840000000     0.040336   
H108     H      0.203780000000     0.140500000000     0.660270000000     0.0471554  
H109     H      0.048110000000     0.109480000000     0.937240000000     0.0405598  
H110     H      0.074370000000     0.135760000000     0.906740000000     0.0467224  
H111     H      0.137430000000     0.074140000000     0.907470000000     0.0467896  
H112     H      0.111000000000     0.047550000000     0.937620000000     0.0405945  
H113     H      0.116450000000     0.162300000000     0.905270000000     0.03882    
H114     H      0.143670000000     0.189400000000     0.876050000000     0.0384009  
H115     H      0.164230000000     0.116430000000     0.834570000000     0.038874   
H116     H      0.137010000000     0.089330000000     0.863780000000     0.0383887  
H117     H      0.143270000000     0.204600000000     0.832350000000     0.0468607  
H118     H      0.169710000000     0.231180000000     0.802220000000     0.0407364  
H119     H      0.232590000000     0.169240000000     0.802620000000     0.0407081  
H120     H      0.206310000000     0.142970000000     0.833110000000     0.0467781  
H121     H      0.229140000000     0.362980000000     0.692210000000     0.0403928  
H122     H      0.203360000000     0.388760000000     0.661010000000     0.0473099  
H123     H      0.141310000000     0.326120000000     0.660310000000     0.047241   
H124     H      0.166780000000     0.300510000000     0.691840000000     0.0403456  
H125     H      0.115160000000     0.368150000000     0.655520000000     0.038968   
H126     H      0.089930000000     0.393320000000     0.623440000000     0.0388693  
H127     H      0.165500000000     0.410760000000     0.584560000000     0.0389975  
H128     H      0.190730000000     0.385590000000     0.616640000000     0.0389106  
H129     H      0.139340000000     0.452780000000     0.579740000000     0.0472272  
H130     H      0.113890000000     0.478330000000     0.548140000000     0.0403455  
H131     H      0.051550000000     0.415840000000     0.547810000000     0.0403194  
H132     H      0.077310000000     0.390110000000     0.579060000000     0.0472238  
H133     H      0.416830000000     0.050330000000     0.548110000000     0.040251   
H134     H      0.391370000000     0.075870000000     0.579700000000     0.0471912  
H135     H      0.453360000000     0.138570000000     0.579030000000     0.0473124  
H136     H      0.479140000000     0.112860000000     0.547780000000     0.0404253  
H137     H      0.365180000000     0.117870000000     0.584540000000     0.0388949  
H138     H      0.339960000000     0.143030000000     0.616620000000     0.0389347  
H139     H      0.415520000000     0.160510000000     0.655490000000     0.0389781  
H140     H      0.440750000000     0.135340000000     0.623410000000     0.0388773  
H141     H      0.327320000000     0.139890000000     0.661000000000     0.0472246  
H142     H      0.301560000000     0.165690000000     0.692200000000     0.0404074  
H143     H      0.363920000000     0.228160000000     0.691790000000     0.0403443  
H144     H      0.389370000000     0.202540000000     0.660250000000     0.0472319  
H145     H      0.419820000000     0.481180000000     0.937520000000     0.0407364  
H146     H      0.393430000000     0.454600000000     0.907340000000     0.0470385  
H147     H      0.456500000000     0.392990000000     0.906630000000     0.0469927  
H148     H      0.482730000000     0.419250000000     0.937170000000     0.0406927  
H149     H      0.393880000000     0.439420000000     0.863650000000     0.0386746  
H150     H      0.366670000000     0.412320000000     0.834420000000     0.0391003  
H151     H      0.387220000000     0.339350000000     0.875890000000     0.038687   
H152     H      0.414430000000     0.366440000000     0.905120000000     0.0389821  
H153     H      0.324570000000     0.385800000000     0.832980000000     0.0469531  
H154     H      0.298260000000     0.359520000000     0.802510000000     0.0407687  
H155     H      0.361130000000     0.297570000000     0.802080000000     0.0408219  
H156     H      0.387610000000     0.324150000000     0.832190000000     0.0470315  
H157     H      0.419940000000     0.047320000000     0.937370000000     0.0406186  
H158     H      0.393680000000     0.073650000000     0.906870000000     0.0467585  
H159     H      0.455800000000     0.136230000000     0.907430000000     0.0469114  
H160     H      0.482350000000     0.109740000000     0.937560000000     0.040712   
H161     H      0.367340000000     0.115820000000     0.905400000000     0.0389831  
H162     H      0.340290000000     0.143100000000     0.876190000000     0.0385604  
H163     H      0.413450000000     0.163110000000     0.834560000000     0.0390496  
H164     H      0.440490000000     0.135830000000     0.863770000000     0.0386286  
H165     H      0.324990000000     0.142660000000     0.832540000000     0.0469345  
H166     H      0.298430000000     0.169080000000     0.802380000000     0.0407919  
H167     H      0.360830000000     0.231520000000     0.802490000000     0.0407557  
H168     H      0.387090000000     0.205250000000     0.833020000000     0.0468117  
H169     H      0.169800000000     0.297510000000     0.802300000000     0.040773   
H170     H      0.143380000000     0.324080000000     0.832460000000     0.0468642  
H171     H      0.206420000000     0.385730000000     0.833170000000     0.0468921  
H172     H      0.232670000000     0.359460000000     0.802640000000     0.0408022  
H173     H      0.143820000000     0.339280000000     0.876160000000     0.038458   
H174     H      0.116590000000     0.366370000000     0.905380000000     0.0388723  
H175     H      0.137110000000     0.439340000000     0.863880000000     0.038485   
H176     H      0.164330000000     0.412250000000     0.834650000000     0.0389704  
H177     H      0.074500000000     0.392880000000     0.906850000000     0.0468491  
H178     H      0.048200000000     0.419160000000     0.937320000000     0.0406006  
H179     H      0.111050000000     0.481140000000     0.937680000000     0.0406855  
H180     H      0.137510000000     0.454550000000     0.907560000000     0.046888   
H181     H      0.416530000000     0.478080000000     0.547650000000     0.0404152  
H182     H      0.390750000000     0.452270000000     0.578830000000     0.0473182  
H183     H      0.453600000000     0.390430000000     0.579420000000     0.0472473  
H184     H      0.479210000000     0.415920000000     0.547910000000     0.0403305  
H185     H      0.393990000000     0.439590000000     0.623190000000     0.0389609  
H186     H      0.368880000000     0.414320000000     0.655290000000     0.0389649  
H187     H      0.386420000000     0.339010000000     0.616280000000     0.0389613  
H188     H      0.411530000000     0.364270000000     0.584190000000     0.0389517  
H189     H      0.326840000000     0.388150000000     0.660130000000     0.0472199  
H190     H      0.301330000000     0.362680000000     0.691720000000     0.0403082  
H191     H      0.364040000000     0.300550000000     0.691910000000     0.0403535  
H192     H      0.389720000000     0.326340000000     0.660650000000     0.0474289  
O35      O      0.456710000000     0.487970000000     0.519060000000    -0.353142   
O36      O      0.074010000000     0.040720000000     0.519130000000    -0.35288    
O37      O      0.041730000000     0.455880000000     0.519200000000    -0.353175   
O38      O      0.488990000000     0.072820000000     0.519180000000    -0.35312    
O39      O      0.073970000000     0.488020000000     0.519190000000    -0.352851   
O40      O      0.456760000000     0.040670000000     0.519160000000    -0.352933   
O41      O      0.041760000000     0.072850000000     0.519160000000    -0.353132   
O42      O      0.488950000000     0.455850000000     0.519110000000    -0.353321   
O43      O      0.458870000000     0.038610000000     0.967710000000    -0.356534   
O44      O      0.071900000000     0.490080000000     0.967750000000    -0.356547   
O45      O      0.491180000000     0.457990000000     0.967680000000    -0.356596   
O46      O      0.039610000000     0.070730000000     0.967710000000    -0.356926   
O47      O      0.071860000000     0.038610000000     0.967720000000    -0.356647   
O48      O      0.458930000000     0.490120000000     0.967660000000    -0.356425   
O49      O      0.491100000000     0.070750000000     0.967740000000    -0.356687   
O50      O      0.039660000000     0.457960000000     0.967750000000    -0.356902   
O51      O      0.015370000000     0.014350000000     0.505280000000    -0.585858   
O52      O      0.291720000000     0.322820000000     0.720640000000    -0.35307    
O53      O      0.238990000000     0.205860000000     0.720710000000    -0.352948   
O54      O      0.323980000000     0.237950000000     0.720680000000    -0.353141   
O55      O      0.206750000000     0.290750000000     0.720730000000    -0.35321    
O56      O      0.291750000000     0.205810000000     0.720750000000    -0.353184   
O57      O      0.238990000000     0.322880000000     0.720740000000    -0.353209   
O58      O      0.206760000000     0.238000000000     0.720700000000    -0.353072   
O59      O      0.323950000000     0.290690000000     0.720600000000    -0.353278   
O60      O      0.241180000000     0.320710000000     0.772170000000    -0.356691   
O61      O      0.289640000000     0.208020000000     0.772170000000    -0.356598   
O62      O      0.321950000000     0.288620000000     0.772030000000    -0.356453   
O63      O      0.208850000000     0.240110000000     0.772120000000    -0.356346   
O64      O      0.241120000000     0.208000000000     0.772160000000    -0.356776   
O65      O      0.289680000000     0.320730000000     0.772090000000    -0.356685   
O66      O      0.208890000000     0.288610000000     0.772150000000    -0.356599   
O67      O      0.321900000000     0.240150000000     0.772090000000    -0.356677   
O68      O      0.265370000000     0.264350000000     0.734560000000    -0.585598   
C321     C      0.465990000000     0.965090000000     0.026710000000     0.350772   
C322     C      0.064710000000     0.563600000000     0.026780000000     0.350478   
C323     C      0.064670000000     0.965140000000     0.026850000000     0.350461   
C324     C      0.466050000000     0.563550000000     0.026820000000     0.350452   
C325     C      0.468690000000     0.560980000000     0.459340000000     0.343991   
C326     C      0.062070000000     0.967720000000     0.459370000000     0.344207   
C327     C      0.468770000000     0.967760000000     0.459260000000     0.343976   
C328     C      0.062020000000     0.560950000000     0.459330000000     0.344325   
C329     C      0.314650000000     0.813560000000     0.212960000000     0.351154   
C330     C      0.216050000000     0.715120000000     0.213060000000     0.35109    
C331     C      0.314680000000     0.715050000000     0.213070000000     0.350856   
C332     C      0.216040000000     0.813640000000     0.213110000000     0.350902   
C333     C      0.218750000000     0.810940000000     0.280550000000     0.343899   
C334     C      0.312070000000     0.717810000000     0.280530000000     0.343683   
C335     C      0.312120000000     0.810970000000     0.280440000000     0.344033   
C336     C      0.218690000000     0.717760000000     0.280530000000     0.34395    
C337     C      0.080710000000     0.579590000000     0.045330000000    -0.100076   
C338     C      0.070770000000     0.604590000000     0.054530000000     0.0229963  
C339     C      0.085490000000     0.619280000000     0.072540000000    -0.0679562  
C340     C      0.110470000000     0.609320000000     0.081810000000     0.0299068  
C341     C      0.120520000000     0.584440000000     0.072480000000    -0.0678822  
C342     C      0.105830000000     0.569740000000     0.054450000000     0.0230302  
C343     C      0.125870000000     0.624710000000     0.101300000000     0.000337584
C344     C      0.128100000000     0.653250000000     0.099900000000    -0.0370981  
C345     C      0.142470000000     0.667730000000     0.118310000000    -0.0370779  
C346     C      0.154940000000     0.654000000000     0.138530000000     0.000330155
C347     C      0.152710000000     0.625460000000     0.139920000000    -0.0372028  
C348     C      0.138340000000     0.610990000000     0.121510000000    -0.0370439  
C349     C      0.170330000000     0.669400000000     0.158010000000     0.0299872  
C350     C      0.160270000000     0.694280000000     0.167340000000    -0.0681135  
C351     C      0.174950000000     0.708970000000     0.185380000000     0.0233036  
C352     C      0.200070000000     0.699140000000     0.194510000000    -0.100589   
C353     C      0.210020000000     0.674130000000     0.185320000000     0.0231675  
C354     C      0.195310000000     0.659440000000     0.167290000000    -0.0680662  
C355     C      0.077470000000     0.576420000000     0.439990000000    -0.0982057  
C356     C      0.067520000000     0.601450000000     0.430840000000     0.0214694  
C357     C      0.082650000000     0.616620000000     0.413460000000    -0.0675695  
C358     C      0.108060000000     0.607130000000     0.404770000000     0.0292308  
C359     C      0.117800000000     0.581900000000     0.413590000000    -0.0673771  
C360     C      0.102690000000     0.566720000000     0.430990000000     0.0214707  
C361     C      0.124520000000     0.623650000000     0.386840000000     0.000411354
C362     C      0.126570000000     0.652070000000     0.389770000000    -0.0371673  
C363     C      0.142200000000     0.667610000000     0.373050000000    -0.0372773  
C364     C      0.156150000000     0.655080000000     0.352990000000     0.000388116
C365     C      0.154100000000     0.626660000000     0.350060000000    -0.0371813  
C366     C      0.138470000000     0.611120000000     0.366790000000    -0.0372817  
C367     C      0.172620000000     0.671600000000     0.335070000000     0.0292965  
C368     C      0.162890000000     0.696820000000     0.326240000000    -0.067461   
C369     C      0.178010000000     0.712000000000     0.308840000000     0.0215046  
C370     C      0.203240000000     0.702300000000     0.299860000000    -0.0982267  
C371     C      0.213180000000     0.677280000000     0.309010000000     0.0215099  
C372     C      0.198030000000     0.662110000000     0.326390000000    -0.0675578  
C373     C      0.200050000000     0.829660000000     0.194570000000    -0.100333   
C374     C      0.209950000000     0.854720000000     0.185500000000     0.0232021  
C375     C      0.195260000000     0.869440000000     0.167480000000    -0.0680814  
C376     C      0.170330000000     0.859460000000     0.158120000000     0.0300023  
C377     C      0.160290000000     0.834520000000     0.167350000000    -0.0680658  
C378     C      0.174990000000     0.819780000000     0.185350000000     0.0231373  
C379     C      0.154950000000     0.874880000000     0.138640000000     0.000312541
C380     C      0.126360000000     0.877160000000     0.140010000000    -0.0371293  
C381     C      0.111910000000     0.891580000000     0.121620000000    -0.0370318  
C382     C      0.125710000000     0.904020000000     0.101430000000     0.000345501
C383     C      0.154300000000     0.901740000000     0.100070000000    -0.037086   
C384     C      0.168750000000     0.887340000000     0.118460000000    -0.0369975  
C385     C      0.110340000000     0.919430000000     0.081940000000     0.0299121  
C386     C      0.120360000000     0.944360000000     0.072690000000    -0.0678931  
C387     C      0.105680000000     0.959070000000     0.054660000000     0.0231221  
C388     C      0.080640000000     0.949170000000     0.045420000000    -0.100177   
C389     C      0.070730000000     0.924110000000     0.054530000000     0.023081   
C390     C      0.085410000000     0.909430000000     0.072570000000    -0.0679227  
C391     C      0.450070000000     0.579520000000     0.045390000000    -0.10016    
C392     C      0.425020000000     0.569600000000     0.054620000000     0.0230526  
C393     C      0.410340000000     0.584300000000     0.072650000000    -0.0679554  
C394     C      0.420350000000     0.609230000000     0.081910000000     0.0299575  
C395     C      0.445270000000     0.619250000000     0.072540000000    -0.0679523  
C396     C      0.459960000000     0.604570000000     0.054490000000     0.0231793  
C397     C      0.404970000000     0.624620000000     0.101400000000     0.00030902 
C398     C      0.376390000000     0.626890000000     0.100050000000    -0.0370146  
C399     C      0.361930000000     0.641300000000     0.118440000000    -0.0370968  
C400     C      0.375730000000     0.653760000000     0.138620000000     0.000336503
C401     C      0.404320000000     0.651480000000     0.139980000000    -0.037077   
C402     C      0.418770000000     0.637080000000     0.121590000000    -0.0370132  
C403     C      0.360360000000     0.669190000000     0.158100000000     0.0299757  
C404     C      0.335430000000     0.659220000000     0.167470000000    -0.0680174  
C405     C      0.320750000000     0.673950000000     0.185490000000     0.0232339  
C406     C      0.330660000000     0.699020000000     0.194550000000    -0.100474   
C407     C      0.355720000000     0.708880000000     0.185310000000     0.0232039  
C408     C      0.370390000000     0.694140000000     0.167310000000    -0.0680639  
C409     C      0.453360000000     0.952310000000     0.439900000000    -0.0982661  
C410     C      0.428140000000     0.962000000000     0.430890000000     0.0217376  
C411     C      0.413050000000     0.946830000000     0.413470000000    -0.067409   
C412     C      0.422800000000     0.921610000000     0.404650000000     0.0294768  
C413     C      0.448210000000     0.912120000000     0.413350000000    -0.0675597  
C414     C      0.463320000000     0.927290000000     0.430760000000     0.0217049  
C415     C      0.406360000000     0.905100000000     0.386700000000     0.000426883
C416     C      0.392410000000     0.917620000000     0.366640000000    -0.037039   
C417     C      0.376790000000     0.902090000000     0.349910000000    -0.0371115  
C418     C      0.374730000000     0.873670000000     0.352840000000     0.000548624
C419     C      0.388700000000     0.861140000000     0.372890000000    -0.037189   
C420     C      0.404310000000     0.876670000000     0.389620000000    -0.036972   
C421     C      0.358270000000     0.857150000000     0.334910000000     0.0293537  
C422     C      0.332840000000     0.866650000000     0.326250000000    -0.0674179  
C423     C      0.317680000000     0.851470000000     0.308890000000     0.0216429  
C424     C      0.327600000000     0.826440000000     0.299740000000    -0.0982112  
C425     C      0.352840000000     0.816740000000     0.308710000000     0.0215858  
C426     C      0.367980000000     0.831920000000     0.326090000000    -0.0673547  
C427     C      0.453230000000     0.576440000000     0.440020000000    -0.0982137  
C428     C      0.428080000000     0.566640000000     0.430930000000     0.0215205  
C429     C      0.412930000000     0.581810000000     0.413560000000    -0.0674213  
C430     C      0.422570000000     0.607110000000     0.404830000000     0.0292978  
C431     C      0.447910000000     0.616700000000     0.413590000000    -0.0673889  
C432     C      0.463070000000     0.601550000000     0.430980000000     0.0215697  
C433     C      0.406080000000     0.623600000000     0.386900000000     0.000450303
C434     C      0.377610000000     0.625840000000     0.389880000000    -0.037185   
C435     C      0.362120000000     0.641500000000     0.373160000000    -0.0371368  
C436     C      0.374700000000     0.655320000000     0.353060000000     0.000418643
C437     C      0.403170000000     0.653090000000     0.350080000000    -0.0371311  
C438     C      0.418670000000     0.637430000000     0.366810000000    -0.0372233  
C439     C      0.358210000000     0.671780000000     0.335120000000     0.0292288  
C440     C      0.332870000000     0.662180000000     0.326360000000    -0.067309   
C441     C      0.317710000000     0.677290000000     0.308950000000     0.0214888  
C442     C      0.327540000000     0.702390000000     0.299880000000    -0.0980645  
C443     C      0.352680000000     0.712210000000     0.308950000000     0.0214613  
C444     C      0.367840000000     0.697070000000     0.326340000000    -0.0673405  
C445     C      0.203330000000     0.826390000000     0.299910000000    -0.0981313  
C446     C      0.178110000000     0.816690000000     0.308920000000     0.0214972  
C447     C      0.163000000000     0.831860000000     0.326330000000    -0.0673872  
C448     C      0.172730000000     0.857080000000     0.335150000000     0.0292928  
C449     C      0.198140000000     0.866580000000     0.326440000000    -0.0673842  
C450     C      0.213270000000     0.851420000000     0.309050000000     0.0215281  
C451     C      0.156290000000     0.873600000000     0.353090000000     0.000443476
C452     C      0.142340000000     0.861070000000     0.373150000000    -0.037159   
C453     C      0.126710000000     0.876600000000     0.389880000000    -0.0371646  
C454     C      0.124650000000     0.905020000000     0.386940000000     0.000498472
C455     C      0.138590000000     0.917550000000     0.366880000000    -0.0372079  
C456     C      0.154210000000     0.902020000000     0.350150000000    -0.0370593  
C457     C      0.108170000000     0.921540000000     0.404870000000     0.0293338  
C458     C      0.082770000000     0.912040000000     0.413560000000    -0.0674402  
C459     C      0.067610000000     0.927210000000     0.430930000000     0.0215589  
C460     C      0.077540000000     0.952250000000     0.440050000000    -0.0982064  
C461     C      0.102760000000     0.961950000000     0.431070000000     0.0215921  
C462     C      0.117890000000     0.946770000000     0.413680000000    -0.0674193  
C463     C      0.449960000000     0.949090000000     0.045230000000    -0.100137   
C464     C      0.424830000000     0.958930000000     0.054330000000     0.0231495  
C465     C      0.410120000000     0.944220000000     0.072330000000    -0.0678632  
C466     C      0.420160000000     0.919330000000     0.081660000000     0.0299549  
C467     C      0.445150000000     0.909370000000     0.072400000000    -0.0679963  
C468     C      0.459890000000     0.924080000000     0.054420000000     0.0231559  
C469     C      0.404740000000     0.903940000000     0.101130000000     0.000413514
C470     C      0.392270000000     0.917660000000     0.121350000000    -0.0370438  
C471     C      0.377900000000     0.903190000000     0.139750000000    -0.0370377  
C472     C      0.375670000000     0.874650000000     0.138350000000     0.000306249
C473     C      0.388130000000     0.860930000000     0.118130000000    -0.0370362  
C474     C      0.402510000000     0.875410000000     0.099720000000    -0.0371352  
C475     C      0.360290000000     0.859250000000     0.157850000000     0.0301335  
C476     C      0.335320000000     0.869210000000     0.167140000000    -0.0681411  
C477     C      0.320630000000     0.854530000000     0.185180000000     0.0232679  
C478     C      0.330600000000     0.829530000000     0.194380000000    -0.10066    
C479     C      0.355700000000     0.819700000000     0.185230000000     0.0234624  
C480     C      0.370370000000     0.834380000000     0.167170000000    -0.0682302  
Co17     Co     0.474890000000     0.514350000000     0.494910000000     0.832751   
Co18     Co     0.055860000000     0.514360000000     0.494940000000     0.832755   
Co19     Co     0.015380000000     0.973960000000     0.494950000000     0.833477   
Co20     Co     0.015370000000     0.554740000000     0.494950000000     0.832837   
Co21     Co     0.265380000000     0.804730000000     0.244910000000     0.833769   
Co22     Co     0.265380000000     0.723970000000     0.244940000000     0.833703   
Co23     Co     0.305880000000     0.764350000000     0.244860000000     0.833088   
Co24     Co     0.224880000000     0.764360000000     0.244910000000     0.832791   
H193     H      0.051460000000     0.612740000000     0.048010000000     0.0403631  
H194     H      0.077020000000     0.638220000000     0.079560000000     0.0471412  
H195     H      0.139890000000     0.576390000000     0.078980000000     0.0473215  
H196     H      0.114140000000     0.550590000000     0.047770000000     0.0405331  
H197     H      0.119070000000     0.664400000000     0.084370000000     0.0389551  
H198     H      0.144170000000     0.689660000000     0.116470000000     0.0389302  
H199     H      0.161740000000     0.614330000000     0.155440000000     0.0389504  
H200     H      0.136640000000     0.589060000000     0.123350000000     0.0388819  
H201     H      0.140910000000     0.702320000000     0.160830000000     0.0473372  
H202     H      0.166630000000     0.728120000000     0.192060000000     0.0403708  
H203     H      0.229330000000     0.665980000000     0.191840000000     0.0403279  
H204     H      0.203780000000     0.640500000000     0.160280000000     0.0472055  
H205     H      0.048110000000     0.609490000000     0.437240000000     0.0406308  
H206     H      0.074370000000     0.635760000000     0.406740000000     0.0467509  
H207     H      0.137430000000     0.574130000000     0.407470000000     0.0468476  
H208     H      0.111000000000     0.547550000000     0.437620000000     0.0407773  
H209     H      0.116450000000     0.662300000000     0.405270000000     0.0388863  
H210     H      0.143670000000     0.689400000000     0.376050000000     0.0384395  
H211     H      0.164230000000     0.616430000000     0.334570000000     0.0389057  
H212     H      0.137010000000     0.589330000000     0.363780000000     0.0384383  
H213     H      0.143270000000     0.704600000000     0.332350000000     0.0468614  
H214     H      0.169710000000     0.731180000000     0.302220000000     0.0407495  
H215     H      0.232590000000     0.669240000000     0.302620000000     0.0407172  
H216     H      0.206310000000     0.642970000000     0.333110000000     0.0468123  
H217     H      0.229140000000     0.862980000000     0.192200000000     0.040406   
H218     H      0.203360000000     0.888760000000     0.161010000000     0.0473378  
H219     H      0.141310000000     0.826120000000     0.160310000000     0.0472626  
H220     H      0.166780000000     0.800510000000     0.191840000000     0.0403527  
H221     H      0.115160000000     0.868150000000     0.155520000000     0.0389773  
H222     H      0.089930000000     0.893320000000     0.123440000000     0.0388917  
H223     H      0.165500000000     0.910760000000     0.084560000000     0.039078   
H224     H      0.190730000000     0.885600000000     0.116640000000     0.0389648  
H225     H      0.139340000000     0.952780000000     0.079740000000     0.0472928  
H226     H      0.113890000000     0.978330000000     0.048150000000     0.0405472  
H227     H      0.051550000000     0.915840000000     0.047810000000     0.0404224  
H228     H      0.077310000000     0.890110000000     0.079060000000     0.0472535  
H229     H      0.416830000000     0.550330000000     0.048110000000     0.0404365  
H230     H      0.391370000000     0.575870000000     0.079700000000     0.0472422  
H231     H      0.453360000000     0.638570000000     0.079030000000     0.0473472  
H232     H      0.479140000000     0.612860000000     0.047780000000     0.0405126  
H233     H      0.365180000000     0.617870000000     0.084540000000     0.0389894  
H234     H      0.339960000000     0.643030000000     0.116630000000     0.0389803  
H235     H      0.415520000000     0.660510000000     0.155490000000     0.0389361  
H236     H      0.440750000000     0.635340000000     0.123410000000     0.0389038  
H237     H      0.327320000000     0.639890000000     0.161010000000     0.0472991  
H238     H      0.301560000000     0.665690000000     0.192200000000     0.0403992  
H239     H      0.363920000000     0.728160000000     0.191790000000     0.0403334  
H240     H      0.389370000000     0.702540000000     0.160250000000     0.0472455  
H241     H      0.419820000000     0.981180000000     0.437510000000     0.0408803  
H242     H      0.393430000000     0.954600000000     0.407340000000     0.047131   
H243     H      0.456500000000     0.892990000000     0.406630000000     0.0470409  
H244     H      0.482730000000     0.919250000000     0.437170000000     0.0407479  
H245     H      0.393880000000     0.939420000000     0.363640000000     0.0387225  
H246     H      0.366670000000     0.912320000000     0.334420000000     0.0391314  
H247     H      0.387220000000     0.839350000000     0.375890000000     0.0387243  
H248     H      0.414430000000     0.866440000000     0.405120000000     0.0390464  
H249     H      0.324570000000     0.885800000000     0.332980000000     0.0469946  
H250     H      0.298260000000     0.859520000000     0.302510000000     0.0407811  
H251     H      0.361130000000     0.797570000000     0.302080000000     0.0408252  
H252     H      0.387610000000     0.824150000000     0.332190000000     0.0470551  
H253     H      0.419940000000     0.547320000000     0.437370000000     0.0407766  
H254     H      0.393680000000     0.573650000000     0.406870000000     0.0468449  
H255     H      0.455800000000     0.636230000000     0.407430000000     0.0469533  
H256     H      0.482350000000     0.609740000000     0.437560000000     0.04079    
H257     H      0.367340000000     0.615820000000     0.405400000000     0.039069   
H258     H      0.340290000000     0.643100000000     0.376190000000     0.0386127  
H259     H      0.413450000000     0.663110000000     0.334560000000     0.0390399  
H260     H      0.440490000000     0.635830000000     0.363770000000     0.0386444  
H261     H      0.324990000000     0.642650000000     0.332540000000     0.0469271  
H262     H      0.298430000000     0.669090000000     0.302380000000     0.0408179  
H263     H      0.360830000000     0.731520000000     0.302490000000     0.0407613  
H264     H      0.387090000000     0.705250000000     0.333020000000     0.0468055  
H265     H      0.169800000000     0.797510000000     0.302290000000     0.0407753  
H266     H      0.143380000000     0.824080000000     0.332460000000     0.0468752  
H267     H      0.206420000000     0.885730000000     0.333160000000     0.0469479  
H268     H      0.232670000000     0.859460000000     0.302640000000     0.0408078  
H269     H      0.143820000000     0.839280000000     0.376160000000     0.0384806  
H270     H      0.116590000000     0.866370000000     0.405370000000     0.0389804  
H271     H      0.137110000000     0.939340000000     0.363880000000     0.0385473  
H272     H      0.164330000000     0.912250000000     0.334650000000     0.0389939  
H273     H      0.074500000000     0.892880000000     0.406850000000     0.0468733  
H274     H      0.048200000000     0.919160000000     0.437320000000     0.0406808  
H275     H      0.111050000000     0.981140000000     0.437680000000     0.0408571  
H276     H      0.137510000000     0.954550000000     0.407560000000     0.0469736  
H277     H      0.416530000000     0.978080000000     0.047650000000     0.040602   
H278     H      0.390750000000     0.952270000000     0.078830000000     0.0474036  
H279     H      0.453600000000     0.890430000000     0.079420000000     0.0472617  
H280     H      0.479210000000     0.915920000000     0.047910000000     0.0404323  
H281     H      0.393990000000     0.939590000000     0.123200000000     0.0389877  
H282     H      0.368880000000     0.914330000000     0.155290000000     0.0389812  
H283     H      0.386420000000     0.839010000000     0.116280000000     0.0389872  
H284     H      0.411530000000     0.864270000000     0.084190000000     0.0390535  
H285     H      0.326840000000     0.888140000000     0.160120000000     0.0472783  
H286     H      0.301330000000     0.862680000000     0.191720000000     0.0403313  
H287     H      0.364040000000     0.800550000000     0.191910000000     0.0403535  
H288     H      0.389720000000     0.826340000000     0.160650000000     0.0474389  
O69      O      0.456710000000     0.987970000000     0.019060000000    -0.352349   
O70      O      0.074010000000     0.540720000000     0.019130000000    -0.352393   
O71      O      0.041730000000     0.955880000000     0.019200000000    -0.352618   
O72      O      0.488990000000     0.572820000000     0.019180000000    -0.352485   
O73      O      0.073970000000     0.988020000000     0.019190000000    -0.352067   
O74      O      0.456760000000     0.540670000000     0.019150000000    -0.352413   
O75      O      0.041760000000     0.572850000000     0.019150000000    -0.352585   
O76      O      0.488950000000     0.955840000000     0.019110000000    -0.352648   
O77      O      0.458870000000     0.538610000000     0.467710000000    -0.356538   
O78      O      0.071900000000     0.990080000000     0.467750000000    -0.356313   
O79      O      0.491180000000     0.957990000000     0.467680000000    -0.356595   
O80      O      0.039610000000     0.570730000000     0.467710000000    -0.356895   
O81      O      0.071860000000     0.538610000000     0.467720000000    -0.356801   
O82      O      0.458930000000     0.990110000000     0.467660000000    -0.356222   
O83      O      0.491100000000     0.570760000000     0.467740000000    -0.356532   
O84      O      0.039660000000     0.957950000000     0.467750000000    -0.356807   
O85      O      0.015370000000     0.514360000000     0.005280000000    -0.584564   
O86      O      0.291720000000     0.822820000000     0.220640000000    -0.353082   
O87      O      0.238990000000     0.705870000000     0.220710000000    -0.353096   
O88      O      0.323980000000     0.737950000000     0.220680000000    -0.353082   
O89      O      0.206750000000     0.790750000000     0.220730000000    -0.353133   
O90      O      0.291750000000     0.705810000000     0.220750000000    -0.353119   
O91      O      0.238990000000     0.822880000000     0.220740000000    -0.353179   
O92      O      0.206760000000     0.738000000000     0.220700000000    -0.353179   
O93      O      0.323950000000     0.790690000000     0.220600000000    -0.353289   
O94      O      0.241180000000     0.820700000000     0.272170000000    -0.356752   
O95      O      0.289640000000     0.708030000000     0.272170000000    -0.356683   
O96      O      0.321950000000     0.788620000000     0.272030000000    -0.356445   
O97      O      0.208850000000     0.740110000000     0.272120000000    -0.356384   
O98      O      0.241120000000     0.708000000000     0.272160000000    -0.356773   
O99      O      0.289680000000     0.820730000000     0.272090000000    -0.356688   
O100     O      0.208890000000     0.788600000000     0.272150000000    -0.356473   
O101     O      0.321900000000     0.740160000000     0.272090000000    -0.356484   
O102     O      0.265370000000     0.764350000000     0.234560000000    -0.58561    
C481     C      0.465990000000     0.965090000000     0.526710000000     0.350917   
C482     C      0.064710000000     0.563600000000     0.526790000000     0.350587   
C483     C      0.064670000000     0.965140000000     0.526850000000     0.350612   
C484     C      0.466050000000     0.563550000000     0.526820000000     0.350658   
C485     C      0.468690000000     0.560980000000     0.959340000000     0.343874   
C486     C      0.062070000000     0.967720000000     0.959370000000     0.344088   
C487     C      0.468770000000     0.967760000000     0.959270000000     0.344047   
C488     C      0.062020000000     0.560950000000     0.959330000000     0.344134   
C489     C      0.314650000000     0.813560000000     0.712960000000     0.351155   
C490     C      0.216050000000     0.715120000000     0.713060000000     0.35109    
C491     C      0.314680000000     0.715050000000     0.713080000000     0.350952   
C492     C      0.216040000000     0.813640000000     0.713110000000     0.35097    
C493     C      0.218750000000     0.810940000000     0.780550000000     0.343895   
C494     C      0.312070000000     0.717810000000     0.780530000000     0.343678   
C495     C      0.312120000000     0.810970000000     0.780440000000     0.344032   
C496     C      0.218690000000     0.717760000000     0.780530000000     0.343949   
C497     C      0.080710000000     0.579590000000     0.545330000000    -0.100311   
C498     C      0.070770000000     0.604590000000     0.554530000000     0.0230543  
C499     C      0.085490000000     0.619280000000     0.572540000000    -0.0680383  
C500     C      0.110470000000     0.609320000000     0.581810000000     0.029935   
C501     C      0.120520000000     0.584440000000     0.572480000000    -0.0679652  
C502     C      0.105830000000     0.569740000000     0.554450000000     0.0230839  
C503     C      0.125870000000     0.624710000000     0.601300000000     0.000266649
C504     C      0.128100000000     0.653250000000     0.599910000000    -0.0370361  
C505     C      0.142470000000     0.667730000000     0.618310000000    -0.0371276  
C506     C      0.154940000000     0.654000000000     0.638530000000     0.000341426
C507     C      0.152710000000     0.625460000000     0.639920000000    -0.0372285  
C508     C      0.138340000000     0.610990000000     0.621510000000    -0.0370199  
C509     C      0.170330000000     0.669400000000     0.658020000000     0.0299917  
C510     C      0.160270000000     0.694280000000     0.667340000000    -0.068128   
C511     C      0.174950000000     0.708970000000     0.685380000000     0.0233039  
C512     C      0.200070000000     0.699140000000     0.694510000000    -0.100589   
C513     C      0.210020000000     0.674130000000     0.685320000000     0.0231616  
C514     C      0.195310000000     0.659440000000     0.667290000000    -0.06806    
C515     C      0.077470000000     0.576420000000     0.939980000000    -0.0981326  
C516     C      0.067520000000     0.601450000000     0.930850000000     0.0213796  
C517     C      0.082650000000     0.616620000000     0.913460000000    -0.0675531  
C518     C      0.108060000000     0.607130000000     0.904770000000     0.0291894  
C519     C      0.117800000000     0.581900000000     0.913590000000    -0.0673767  
C520     C      0.102690000000     0.566720000000     0.930990000000     0.0213948  
C521     C      0.124520000000     0.623650000000     0.886840000000     0.000401643
C522     C      0.126570000000     0.652070000000     0.889770000000    -0.0371867  
C523     C      0.142200000000     0.667610000000     0.873050000000    -0.0372951  
C524     C      0.156150000000     0.655080000000     0.852990000000     0.000382107
C525     C      0.154100000000     0.626660000000     0.850060000000    -0.0371866  
C526     C      0.138470000000     0.611120000000     0.866790000000    -0.0372878  
C527     C      0.172620000000     0.671600000000     0.835070000000     0.0292882  
C528     C      0.162890000000     0.696820000000     0.826240000000    -0.0674613  
C529     C      0.178010000000     0.712000000000     0.808840000000     0.0214996  
C530     C      0.203240000000     0.702300000000     0.799860000000    -0.0982258  
C531     C      0.213180000000     0.677280000000     0.809010000000     0.021505   
C532     C      0.198030000000     0.662110000000     0.826390000000    -0.0675606  
C533     C      0.200050000000     0.829660000000     0.694580000000    -0.100415   
C534     C      0.209950000000     0.854720000000     0.685500000000     0.0232354  
C535     C      0.195260000000     0.869440000000     0.667480000000    -0.0680993  
C536     C      0.170330000000     0.859460000000     0.658120000000     0.0300061  
C537     C      0.160290000000     0.834520000000     0.667350000000    -0.0680696  
C538     C      0.174990000000     0.819780000000     0.685360000000     0.0231499  
C539     C      0.154950000000     0.874880000000     0.638640000000     0.000291257
C540     C      0.126360000000     0.877160000000     0.640010000000    -0.0371313  
C541     C      0.111910000000     0.891580000000     0.621620000000    -0.0370312  
C542     C      0.125710000000     0.904020000000     0.601430000000     0.000313535
C543     C      0.154300000000     0.901740000000     0.600070000000    -0.037087   
C544     C      0.168750000000     0.887340000000     0.618450000000    -0.0370127  
C545     C      0.110340000000     0.919430000000     0.581940000000     0.0299161  
C546     C      0.120360000000     0.944360000000     0.572690000000    -0.0679527  
C547     C      0.105680000000     0.959070000000     0.554660000000     0.0231447  
C548     C      0.080640000000     0.949170000000     0.545420000000    -0.100339   
C549     C      0.070730000000     0.924110000000     0.554530000000     0.0231003  
C550     C      0.085410000000     0.909430000000     0.572570000000    -0.0679843  
C551     C      0.450070000000     0.579520000000     0.545390000000    -0.100324   
C552     C      0.425020000000     0.569600000000     0.554620000000     0.0230666  
C553     C      0.410340000000     0.584300000000     0.572660000000    -0.0680382  
C554     C      0.420350000000     0.609230000000     0.581910000000     0.0299765  
C555     C      0.445270000000     0.619250000000     0.572540000000    -0.068022   
C556     C      0.459960000000     0.604570000000     0.554490000000     0.023203   
C557     C      0.404970000000     0.624620000000     0.601410000000     0.000290661
C558     C      0.376390000000     0.626890000000     0.600050000000    -0.0370309  
C559     C      0.361930000000     0.641300000000     0.618440000000    -0.0371254  
C560     C      0.375730000000     0.653760000000     0.638620000000     0.000366658
C561     C      0.404320000000     0.651480000000     0.639990000000    -0.0371506  
C562     C      0.418770000000     0.637080000000     0.621590000000    -0.0369991  
C563     C      0.360360000000     0.669190000000     0.658100000000     0.0299579  
C564     C      0.335430000000     0.659220000000     0.667460000000    -0.0679931  
C565     C      0.320750000000     0.673950000000     0.685490000000     0.0231772  
C566     C      0.330660000000     0.699020000000     0.694550000000    -0.1004     
C567     C      0.355720000000     0.708880000000     0.685310000000     0.0231675  
C568     C      0.370390000000     0.694140000000     0.667310000000    -0.0680506  
C569     C      0.453360000000     0.952310000000     0.939910000000    -0.0983181  
C570     C      0.428140000000     0.962000000000     0.930890000000     0.0217098  
C571     C      0.413050000000     0.946830000000     0.913470000000    -0.0674295  
C572     C      0.422800000000     0.921610000000     0.904650000000     0.029436   
C573     C      0.448210000000     0.912120000000     0.913360000000    -0.0675617  
C574     C      0.463320000000     0.927290000000     0.930760000000     0.0216858  
C575     C      0.406360000000     0.905100000000     0.886700000000     0.000415896
C576     C      0.392410000000     0.917620000000     0.866640000000    -0.0370525  
C577     C      0.376790000000     0.902090000000     0.849910000000    -0.0371136  
C578     C      0.374730000000     0.873670000000     0.852840000000     0.000547616
C579     C      0.388700000000     0.861140000000     0.872890000000    -0.0372097  
C580     C      0.404310000000     0.876670000000     0.889620000000    -0.0369902  
C581     C      0.358270000000     0.857150000000     0.834910000000     0.0293218  
C582     C      0.332840000000     0.866650000000     0.826250000000    -0.0674104  
C583     C      0.317680000000     0.851470000000     0.808890000000     0.0216343  
C584     C      0.327600000000     0.826440000000     0.799740000000    -0.0982122  
C585     C      0.352840000000     0.816740000000     0.808710000000     0.0215898  
C586     C      0.367980000000     0.831920000000     0.826080000000    -0.0673301  
C587     C      0.453230000000     0.576440000000     0.940020000000    -0.0982219  
C588     C      0.428080000000     0.566640000000     0.930930000000     0.0214717  
C589     C      0.412930000000     0.581810000000     0.913560000000    -0.0674167  
C590     C      0.422570000000     0.607110000000     0.904820000000     0.0292445  
C591     C      0.447910000000     0.616700000000     0.913590000000    -0.0673867  
C592     C      0.463070000000     0.601550000000     0.930980000000     0.0215209  
C593     C      0.406080000000     0.623600000000     0.886900000000     0.000440227
C594     C      0.377610000000     0.625840000000     0.889880000000    -0.0372033  
C595     C      0.362120000000     0.641500000000     0.873160000000    -0.0371551  
C596     C      0.374700000000     0.655320000000     0.853060000000     0.000412581
C597     C      0.403170000000     0.653090000000     0.850080000000    -0.0371363  
C598     C      0.418670000000     0.637430000000     0.866810000000    -0.0372294  
C599     C      0.358210000000     0.671780000000     0.835120000000     0.0292202  
C600     C      0.332870000000     0.662180000000     0.826360000000    -0.0673097  
C601     C      0.317710000000     0.677290000000     0.808950000000     0.021483   
C602     C      0.327540000000     0.702390000000     0.799880000000    -0.0980649  
C603     C      0.352680000000     0.712210000000     0.808950000000     0.0214558  
C604     C      0.367840000000     0.697070000000     0.826340000000    -0.0673435  
C605     C      0.203330000000     0.826390000000     0.799910000000    -0.0981177  
C606     C      0.178110000000     0.816690000000     0.808920000000     0.0214788  
C607     C      0.163000000000     0.831860000000     0.826330000000    -0.0673734  
C608     C      0.172730000000     0.857080000000     0.835150000000     0.0292587  
C609     C      0.198140000000     0.866580000000     0.826440000000    -0.0673521  
C610     C      0.213270000000     0.851420000000     0.809050000000     0.0215068  
C611     C      0.156290000000     0.873600000000     0.853090000000     0.00047013 
C612     C      0.142340000000     0.861070000000     0.873140000000    -0.0372067  
C613     C      0.126710000000     0.876600000000     0.889880000000    -0.0371373  
C614     C      0.124650000000     0.905020000000     0.886940000000     0.000459157
C615     C      0.138590000000     0.917550000000     0.866880000000    -0.0371955  
C616     C      0.154210000000     0.902020000000     0.850150000000    -0.0370856  
C617     C      0.108170000000     0.921540000000     0.904870000000     0.0293223  
C618     C      0.082770000000     0.912040000000     0.913560000000    -0.0674645  
C619     C      0.067610000000     0.927210000000     0.930930000000     0.0215226  
C620     C      0.077540000000     0.952250000000     0.940050000000    -0.0982248  
C621     C      0.102760000000     0.961950000000     0.931070000000     0.0215558  
C622     C      0.117890000000     0.946770000000     0.913680000000    -0.0674465  
C623     C      0.449960000000     0.949090000000     0.545230000000    -0.100277   
C624     C      0.424830000000     0.958930000000     0.554320000000     0.0231482  
C625     C      0.410120000000     0.944220000000     0.572330000000    -0.0679143  
C626     C      0.420160000000     0.919330000000     0.581660000000     0.0299757  
C627     C      0.445150000000     0.909370000000     0.572410000000    -0.0680591  
C628     C      0.459890000000     0.924080000000     0.554410000000     0.02314    
C629     C      0.404740000000     0.903940000000     0.601130000000     0.000348331
C630     C      0.392270000000     0.917660000000     0.621350000000    -0.037029   
C631     C      0.377900000000     0.903190000000     0.639750000000    -0.0370525  
C632     C      0.375670000000     0.874650000000     0.638350000000     0.000311579
C633     C      0.388130000000     0.860930000000     0.618130000000    -0.0370818  
C634     C      0.402510000000     0.875410000000     0.599730000000    -0.037076   
C635     C      0.360290000000     0.859250000000     0.657850000000     0.0301353  
C636     C      0.335320000000     0.869210000000     0.667140000000    -0.0681706  
C637     C      0.320630000000     0.854530000000     0.685180000000     0.0232749  
C638     C      0.330600000000     0.829530000000     0.694380000000    -0.100662   
C639     C      0.355700000000     0.819700000000     0.685230000000     0.0234625  
C640     C      0.370370000000     0.834380000000     0.667170000000    -0.0682342  
Co25     Co     0.474890000000     0.514350000000     0.994910000000     0.831514   
Co26     Co     0.055860000000     0.514360000000     0.994940000000     0.83145    
Co27     Co     0.015380000000     0.973960000000     0.994950000000     0.832175   
Co28     Co     0.015370000000     0.554740000000     0.994950000000     0.831598   
Co29     Co     0.265380000000     0.804730000000     0.744910000000     0.833775   
Co30     Co     0.265380000000     0.723970000000     0.744940000000     0.833711   
Co31     Co     0.305880000000     0.764350000000     0.744860000000     0.833096   
Co32     Co     0.224880000000     0.764360000000     0.744910000000     0.832797   
H289     H      0.051460000000     0.612740000000     0.548010000000     0.0402721  
H290     H      0.077020000000     0.638220000000     0.579560000000     0.0471212  
H291     H      0.139890000000     0.576390000000     0.578980000000     0.0472918  
H292     H      0.114140000000     0.550590000000     0.547770000000     0.0404355  
H293     H      0.119070000000     0.664400000000     0.584370000000     0.0388541  
H294     H      0.144170000000     0.689660000000     0.616470000000     0.0389012  
H295     H      0.161740000000     0.614330000000     0.655440000000     0.0389582  
H296     H      0.136640000000     0.589060000000     0.623350000000     0.0388737  
H297     H      0.140910000000     0.702320000000     0.660830000000     0.0473347  
H298     H      0.166630000000     0.728120000000     0.692060000000     0.0403701  
H299     H      0.229330000000     0.665980000000     0.691840000000     0.0403304  
H300     H      0.203780000000     0.640500000000     0.660270000000     0.0471829  
H301     H      0.048110000000     0.609490000000     0.937240000000     0.0405863  
H302     H      0.074370000000     0.635760000000     0.906740000000     0.0467123  
H303     H      0.137430000000     0.574130000000     0.907470000000     0.0468016  
H304     H      0.111000000000     0.547550000000     0.937620000000     0.0407267  
H305     H      0.116450000000     0.662300000000     0.905270000000     0.0388226  
H306     H      0.143670000000     0.689400000000     0.876050000000     0.0384023  
H307     H      0.164230000000     0.616430000000     0.834570000000     0.0389087  
H308     H      0.137010000000     0.589330000000     0.863780000000     0.0384401  
H309     H      0.143270000000     0.704600000000     0.832350000000     0.0468551  
H310     H      0.169710000000     0.731180000000     0.802220000000     0.0407498  
H311     H      0.232590000000     0.669240000000     0.802620000000     0.0407161  
H312     H      0.206310000000     0.642970000000     0.833110000000     0.0467986  
H313     H      0.229140000000     0.862980000000     0.692210000000     0.0404043  
H314     H      0.203360000000     0.888760000000     0.661010000000     0.0473363  
H315     H      0.141310000000     0.826120000000     0.660310000000     0.0472515  
H316     H      0.166780000000     0.800510000000     0.691840000000     0.0403498  
H317     H      0.115160000000     0.868150000000     0.655520000000     0.0389799  
H318     H      0.089930000000     0.893320000000     0.623440000000     0.0388899  
H319     H      0.165500000000     0.910760000000     0.584560000000     0.0390081  
H320     H      0.190730000000     0.885600000000     0.616640000000     0.0389287  
H321     H      0.139340000000     0.952780000000     0.579740000000     0.0472678  
H322     H      0.113890000000     0.978330000000     0.548140000000     0.0404666  
H323     H      0.051550000000     0.915840000000     0.547810000000     0.0403357  
H324     H      0.077310000000     0.890110000000     0.579060000000     0.0472184  
H325     H      0.416830000000     0.550330000000     0.548110000000     0.0403583  
H326     H      0.391370000000     0.575870000000     0.579700000000     0.047232   
H327     H      0.453360000000     0.638570000000     0.579030000000     0.0473135  
H328     H      0.479140000000     0.612860000000     0.547780000000     0.040425   
H329     H      0.365180000000     0.617870000000     0.584540000000     0.0389204  
H330     H      0.339960000000     0.643030000000     0.616620000000     0.0389449  
H331     H      0.415520000000     0.660510000000     0.655490000000     0.0389703  
H332     H      0.440750000000     0.635340000000     0.623410000000     0.038899   
H333     H      0.327320000000     0.639890000000     0.661000000000     0.0472885  
H334     H      0.301560000000     0.665690000000     0.692200000000     0.0404158  
H335     H      0.363920000000     0.728160000000     0.691790000000     0.0403431  
H336     H      0.389370000000     0.702540000000     0.660250000000     0.0472292  
H337     H      0.419820000000     0.981180000000     0.937520000000     0.0408312  
H338     H      0.393430000000     0.954600000000     0.907340000000     0.04709    
H339     H      0.456500000000     0.892990000000     0.906630000000     0.0469983  
H340     H      0.482730000000     0.919250000000     0.937170000000     0.040693   
H341     H      0.393880000000     0.939420000000     0.863650000000     0.0387289  
H342     H      0.366670000000     0.912320000000     0.834420000000     0.0391354  
H343     H      0.387220000000     0.839350000000     0.875890000000     0.038686   
H344     H      0.414430000000     0.866440000000     0.905120000000     0.0389833  
H345     H      0.324570000000     0.885800000000     0.832980000000     0.0469777  
H346     H      0.298260000000     0.859520000000     0.802510000000     0.0407805  
H347     H      0.361130000000     0.797570000000     0.802080000000     0.0408227  
H348     H      0.387610000000     0.824150000000     0.832190000000     0.0470336  
H349     H      0.419940000000     0.547320000000     0.937370000000     0.0407255  
H350     H      0.393680000000     0.573650000000     0.906870000000     0.0468086  
H351     H      0.455800000000     0.636230000000     0.907430000000     0.0469083  
H352     H      0.482350000000     0.609740000000     0.937560000000     0.0407364  
H353     H      0.367340000000     0.615820000000     0.905400000000     0.0390057  
H354     H      0.340290000000     0.643100000000     0.876190000000     0.0385748  
H355     H      0.413450000000     0.663110000000     0.834560000000     0.039043   
H356     H      0.440490000000     0.635830000000     0.863770000000     0.0386464  
H357     H      0.324990000000     0.642650000000     0.832540000000     0.0469197  
H358     H      0.298430000000     0.669090000000     0.802380000000     0.0408169  
H359     H      0.360830000000     0.731520000000     0.802490000000     0.0407599  
H360     H      0.387090000000     0.705250000000     0.833020000000     0.0467921  
H361     H      0.169800000000     0.797510000000     0.802300000000     0.0407727  
H362     H      0.143380000000     0.824080000000     0.832460000000     0.0468657  
H363     H      0.206420000000     0.885730000000     0.833170000000     0.0469165  
H364     H      0.232670000000     0.859460000000     0.802640000000     0.0408118  
H365     H      0.143820000000     0.839280000000     0.876160000000     0.03845    
H366     H      0.116590000000     0.866370000000     0.905380000000     0.0388915  
H367     H      0.137110000000     0.939340000000     0.863880000000     0.0385441  
H368     H      0.164330000000     0.912250000000     0.834650000000     0.0390027  
H369     H      0.074500000000     0.892880000000     0.906850000000     0.046846   
H370     H      0.048200000000     0.919160000000     0.937320000000     0.040627   
H371     H      0.111050000000     0.981140000000     0.937680000000     0.0407988  
H372     H      0.137510000000     0.954550000000     0.907560000000     0.0469348  
H373     H      0.416530000000     0.978080000000     0.547650000000     0.0405214  
H374     H      0.390750000000     0.952270000000     0.578830000000     0.047365   
H375     H      0.453600000000     0.890430000000     0.579420000000     0.0472467  
H376     H      0.479210000000     0.915920000000     0.547910000000     0.0403549  
H377     H      0.393990000000     0.939590000000     0.623190000000     0.0389846  
H378     H      0.368880000000     0.914330000000     0.655290000000     0.0389878  
H379     H      0.386420000000     0.839010000000     0.616280000000     0.0389572  
H380     H      0.411530000000     0.864270000000     0.584190000000     0.0389524  
H381     H      0.326840000000     0.888140000000     0.660130000000     0.047281   
H382     H      0.301330000000     0.862680000000     0.691720000000     0.0403268  
H383     H      0.364040000000     0.800550000000     0.691910000000     0.0403535  
H384     H      0.389720000000     0.826340000000     0.660650000000     0.0474339  
O103     O      0.456710000000     0.987970000000     0.519060000000    -0.352873   
O104     O      0.074010000000     0.540720000000     0.519130000000    -0.352883   
O105     O      0.041730000000     0.955880000000     0.519200000000    -0.353157   
O106     O      0.488990000000     0.572820000000     0.519180000000    -0.353041   
O107     O      0.073970000000     0.988020000000     0.519190000000    -0.352611   
O108     O      0.456760000000     0.540670000000     0.519160000000    -0.352943   
O109     O      0.041760000000     0.572850000000     0.519160000000    -0.353043   
O110     O      0.488950000000     0.955840000000     0.519110000000    -0.353181   
O111     O      0.458870000000     0.538610000000     0.967710000000    -0.356485   
O112     O      0.071900000000     0.990080000000     0.967750000000    -0.356271   
O113     O      0.491180000000     0.957990000000     0.967680000000    -0.356651   
O114     O      0.039610000000     0.570730000000     0.967710000000    -0.356834   
O115     O      0.071860000000     0.538610000000     0.967720000000    -0.356744   
O116     O      0.458930000000     0.990110000000     0.967660000000    -0.356286   
O117     O      0.491100000000     0.570760000000     0.967740000000    -0.356494   
O118     O      0.039660000000     0.957950000000     0.967750000000    -0.356759   
O119     O      0.015370000000     0.514360000000     0.505280000000    -0.585796   
O120     O      0.291720000000     0.822820000000     0.720640000000    -0.353081   
O121     O      0.238990000000     0.705870000000     0.720710000000    -0.353091   
O122     O      0.323980000000     0.737950000000     0.720680000000    -0.353152   
O123     O      0.206750000000     0.790750000000     0.720730000000    -0.353147   
O124     O      0.291750000000     0.705810000000     0.720750000000    -0.353189   
O125     O      0.238990000000     0.822880000000     0.720740000000    -0.353195   
O126     O      0.206760000000     0.738000000000     0.720700000000    -0.353176   
O127     O      0.323950000000     0.790690000000     0.720600000000    -0.353284   
O128     O      0.241180000000     0.820700000000     0.772170000000    -0.35675    
O129     O      0.289640000000     0.708030000000     0.772170000000    -0.356686   
O130     O      0.321950000000     0.788620000000     0.772030000000    -0.356444   
O131     O      0.208850000000     0.740110000000     0.772120000000    -0.356383   
O132     O      0.241120000000     0.708000000000     0.772160000000    -0.356772   
O133     O      0.289680000000     0.820730000000     0.772090000000    -0.356687   
O134     O      0.208890000000     0.788600000000     0.772150000000    -0.356468   
O135     O      0.321900000000     0.740160000000     0.772090000000    -0.356487   
O136     O      0.265370000000     0.764350000000     0.734560000000    -0.585614   
C641     C      0.965990000000     0.465090000000     0.026710000000     0.35091    
C642     C      0.564710000000     0.063600000000     0.026780000000     0.350537   
C643     C      0.564670000000     0.465140000000     0.026850000000     0.350364   
C644     C      0.966050000000     0.063550000000     0.026820000000     0.350436   
C645     C      0.968690000000     0.060980000000     0.459340000000     0.344133   
C646     C      0.562070000000     0.467720000000     0.459370000000     0.344222   
C647     C      0.968780000000     0.467760000000     0.459260000000     0.343793   
C648     C      0.562020000000     0.060960000000     0.459330000000     0.344323   
C649     C      0.814640000000     0.313560000000     0.212960000000     0.351191   
C650     C      0.716050000000     0.215120000000     0.213060000000     0.350913   
C651     C      0.814680000000     0.215050000000     0.213070000000     0.350818   
C652     C      0.716040000000     0.313640000000     0.213110000000     0.350805   
C653     C      0.718750000000     0.310940000000     0.280550000000     0.344163   
C654     C      0.812070000000     0.217820000000     0.280530000000     0.343777   
C655     C      0.812120000000     0.310970000000     0.280440000000     0.344001   
C656     C      0.718690000000     0.217760000000     0.280530000000     0.34379    
C657     C      0.580710000000     0.079590000000     0.045330000000    -0.100198   
C658     C      0.570770000000     0.104580000000     0.054530000000     0.0231623  
C659     C      0.585480000000     0.119280000000     0.072540000000    -0.0680354  
C660     C      0.610470000000     0.109320000000     0.081810000000     0.0299413  
C661     C      0.620520000000     0.084440000000     0.072480000000    -0.067989   
C662     C      0.605830000000     0.069750000000     0.054450000000     0.0231193  
C663     C      0.625870000000     0.124720000000     0.101300000000     0.000330424
C664     C      0.628100000000     0.153250000000     0.099900000000    -0.0370688  
C665     C      0.642470000000     0.167730000000     0.118310000000    -0.0371305  
C666     C      0.654940000000     0.154000000000     0.138530000000     0.000352529
C667     C      0.652710000000     0.125460000000     0.139920000000    -0.0371897  
C668     C      0.638340000000     0.110990000000     0.121510000000    -0.0370525  
C669     C      0.670330000000     0.169400000000     0.158010000000     0.0299681  
C670     C      0.660270000000     0.194270000000     0.167340000000    -0.0680553  
C671     C      0.674950000000     0.208970000000     0.185380000000     0.0232405  
C672     C      0.700070000000     0.199140000000     0.194510000000    -0.100507   
C673     C      0.710020000000     0.174130000000     0.185320000000     0.0231534  
C674     C      0.695320000000     0.159440000000     0.167290000000    -0.0680778  
C675     C      0.577470000000     0.076420000000     0.439990000000    -0.0983688  
C676     C      0.567520000000     0.101440000000     0.430840000000     0.0216024  
C677     C      0.582650000000     0.116620000000     0.413460000000    -0.0676215  
C678     C      0.608060000000     0.107130000000     0.404770000000     0.0292928  
C679     C      0.617800000000     0.081900000000     0.413590000000    -0.0675133  
C680     C      0.602690000000     0.066730000000     0.430990000000     0.021615   
C681     C      0.624520000000     0.123650000000     0.386840000000     0.000389011
C682     C      0.626570000000     0.152070000000     0.389770000000    -0.0371527  
C683     C      0.642200000000     0.167610000000     0.373050000000    -0.0372679  
C684     C      0.656150000000     0.155090000000     0.352990000000     0.000384032
C685     C      0.654100000000     0.126660000000     0.350060000000    -0.0371834  
C686     C      0.638470000000     0.111120000000     0.366790000000    -0.0372774  
C687     C      0.672620000000     0.171600000000     0.335070000000     0.0292867  
C688     C      0.662880000000     0.196820000000     0.326240000000    -0.0674473  
C689     C      0.678010000000     0.212000000000     0.308840000000     0.021493   
C690     C      0.703250000000     0.202310000000     0.299860000000    -0.0982431  
C691     C      0.713180000000     0.177280000000     0.309010000000     0.0214852  
C692     C      0.698030000000     0.162110000000     0.326390000000    -0.0675323  
C693     C      0.700050000000     0.329650000000     0.194570000000    -0.100306   
C694     C      0.709950000000     0.354720000000     0.185500000000     0.0231439  
C695     C      0.695260000000     0.369440000000     0.167480000000    -0.0680482  
C696     C      0.670320000000     0.359460000000     0.158120000000     0.0299877  
C697     C      0.660290000000     0.334530000000     0.167350000000    -0.0680341  
C698     C      0.674990000000     0.319780000000     0.185350000000     0.0231305  
C699     C      0.654950000000     0.374880000000     0.138640000000     0.000309091
C700     C      0.626360000000     0.377160000000     0.140010000000    -0.0371258  
C701     C      0.611910000000     0.391580000000     0.121620000000    -0.037024   
C702     C      0.625710000000     0.404030000000     0.101430000000     0.000332937
C703     C      0.654300000000     0.401750000000     0.100070000000    -0.0371148  
C704     C      0.668750000000     0.387340000000     0.118460000000    -0.0369988  
C705     C      0.610330000000     0.419430000000     0.081940000000     0.0299527  
C706     C      0.620360000000     0.444360000000     0.072690000000    -0.0679664  
C707     C      0.605680000000     0.459060000000     0.054660000000     0.0231751  
C708     C      0.580640000000     0.449170000000     0.045420000000    -0.100188   
C709     C      0.570730000000     0.424110000000     0.054530000000     0.0231059  
C710     C      0.585410000000     0.409430000000     0.072570000000    -0.0679452  
C711     C      0.950070000000     0.079520000000     0.045390000000    -0.100157   
C712     C      0.925020000000     0.069610000000     0.054620000000     0.0231044  
C713     C      0.910340000000     0.084300000000     0.072650000000    -0.0680126  
C714     C      0.920350000000     0.109230000000     0.081910000000     0.0299717  
C715     C      0.945270000000     0.119250000000     0.072540000000    -0.0679266  
C716     C      0.959960000000     0.104580000000     0.054490000000     0.0231599  
C717     C      0.904970000000     0.124620000000     0.101400000000     0.000296254
C718     C      0.876380000000     0.126890000000     0.100050000000    -0.0370403  
C719     C      0.861930000000     0.141300000000     0.118440000000    -0.0370924  
C720     C      0.875730000000     0.153760000000     0.138620000000     0.000351203
C721     C      0.904320000000     0.151490000000     0.139980000000    -0.0371084  
C722     C      0.918770000000     0.137080000000     0.121590000000    -0.0369942  
C723     C      0.860360000000     0.169200000000     0.158100000000     0.0299701  
C724     C      0.835430000000     0.159230000000     0.167470000000    -0.0679612  
C725     C      0.820750000000     0.173950000000     0.185490000000     0.0232073  
C726     C      0.830660000000     0.199020000000     0.194550000000    -0.100452   
C727     C      0.855720000000     0.208880000000     0.185310000000     0.0232032  
C728     C      0.870390000000     0.194140000000     0.167310000000    -0.0680661  
C729     C      0.953360000000     0.452310000000     0.439900000000    -0.098118   
C730     C      0.928140000000     0.462000000000     0.430890000000     0.0216649  
C731     C      0.913050000000     0.446830000000     0.413470000000    -0.067416   
C732     C      0.922800000000     0.421620000000     0.404650000000     0.0294682  
C733     C      0.948210000000     0.412120000000     0.413350000000    -0.0674977  
C734     C      0.963320000000     0.427290000000     0.430760000000     0.0216178  
C735     C      0.906360000000     0.405100000000     0.386700000000     0.000437181
C736     C      0.892410000000     0.417620000000     0.366640000000    -0.0370449  
C737     C      0.876790000000     0.402090000000     0.349910000000    -0.0371205  
C738     C      0.874730000000     0.373670000000     0.352840000000     0.000561243
C739     C      0.888690000000     0.361140000000     0.372890000000    -0.0371912  
C740     C      0.904310000000     0.376670000000     0.389620000000    -0.036973   
C741     C      0.858260000000     0.357150000000     0.334910000000     0.029372   
C742     C      0.832840000000     0.366650000000     0.326250000000    -0.0674434  
C743     C      0.817680000000     0.351470000000     0.308890000000     0.021642   
C744     C      0.827600000000     0.326440000000     0.299740000000    -0.0982053  
C745     C      0.852840000000     0.316740000000     0.308710000000     0.0215885  
C746     C      0.867980000000     0.331920000000     0.326090000000    -0.0673531  
C747     C      0.953230000000     0.076440000000     0.440020000000    -0.0982772  
C748     C      0.928080000000     0.066640000000     0.430930000000     0.0215547  
C749     C      0.912930000000     0.081810000000     0.413560000000    -0.0674538  
C750     C      0.922560000000     0.107110000000     0.404830000000     0.0292829  
C751     C      0.947910000000     0.116700000000     0.413590000000    -0.0673592  
C752     C      0.963070000000     0.101550000000     0.430980000000     0.0216069  
C753     C      0.906080000000     0.123610000000     0.386900000000     0.000464121
C754     C      0.877610000000     0.125840000000     0.389880000000    -0.0371974  
C755     C      0.862120000000     0.141500000000     0.373160000000    -0.0371474  
C756     C      0.874700000000     0.155320000000     0.353060000000     0.000433661
C757     C      0.903170000000     0.153100000000     0.350080000000    -0.0371606  
C758     C      0.918670000000     0.137430000000     0.366810000000    -0.0372166  
C759     C      0.858210000000     0.171780000000     0.335120000000     0.0292288  
C760     C      0.832870000000     0.162180000000     0.326360000000    -0.0673743  
C761     C      0.817710000000     0.177290000000     0.308950000000     0.0215136  
C762     C      0.827540000000     0.202390000000     0.299880000000    -0.0980107  
C763     C      0.852690000000     0.212210000000     0.308950000000     0.0214362  
C764     C      0.867840000000     0.197080000000     0.326340000000    -0.0673427  
C765     C      0.703320000000     0.326390000000     0.299910000000    -0.0981719  
C766     C      0.678110000000     0.316690000000     0.308920000000     0.021558   
C767     C      0.663000000000     0.331860000000     0.326330000000    -0.0674018  
C768     C      0.672730000000     0.357080000000     0.335150000000     0.0292886  
C769     C      0.698140000000     0.366580000000     0.326440000000    -0.067384   
C770     C      0.713270000000     0.351420000000     0.309050000000     0.0215196  
C771     C      0.656280000000     0.373600000000     0.353090000000     0.000470812
C772     C      0.642340000000     0.361070000000     0.373150000000    -0.0371805  
C773     C      0.626710000000     0.376610000000     0.389880000000    -0.037146   
C774     C      0.624650000000     0.405030000000     0.386940000000     0.000494739
C775     C      0.638590000000     0.417550000000     0.366880000000    -0.0372001  
C776     C      0.654210000000     0.402020000000     0.350150000000    -0.037081   
C777     C      0.608180000000     0.421540000000     0.404870000000     0.0293084  
C778     C      0.582760000000     0.412040000000     0.413560000000    -0.0674247  
C779     C      0.567610000000     0.427210000000     0.430930000000     0.021632   
C780     C      0.577530000000     0.452250000000     0.440050000000    -0.0982841  
C781     C      0.602760000000     0.461950000000     0.431070000000     0.0215932  
C782     C      0.617890000000     0.446770000000     0.413680000000    -0.0674416  
C783     C      0.949960000000     0.449090000000     0.045230000000    -0.100198   
C784     C      0.924830000000     0.458930000000     0.054330000000     0.0231616  
C785     C      0.910120000000     0.444220000000     0.072330000000    -0.067885   
C786     C      0.920150000000     0.419330000000     0.081660000000     0.0299383  
C787     C      0.945150000000     0.409370000000     0.072400000000    -0.0679642  
C788     C      0.959890000000     0.424080000000     0.054420000000     0.0231871  
C789     C      0.904740000000     0.403940000000     0.101130000000     0.000434979
C790     C      0.892270000000     0.417670000000     0.121350000000    -0.0370998  
C791     C      0.877900000000     0.403190000000     0.139750000000    -0.0370587  
C792     C      0.875670000000     0.374660000000     0.138350000000     0.000337587
C793     C      0.888130000000     0.360930000000     0.118130000000    -0.0370386  
C794     C      0.902510000000     0.375410000000     0.099720000000    -0.0371309  
C795     C      0.860290000000     0.359250000000     0.157850000000     0.0300926  
C796     C      0.835320000000     0.369210000000     0.167140000000    -0.0680768  
C797     C      0.820630000000     0.354520000000     0.185180000000     0.0232468  
C798     C      0.830600000000     0.329530000000     0.194380000000    -0.100615   
C799     C      0.855700000000     0.319700000000     0.185230000000     0.0234473  
C800     C      0.870370000000     0.334380000000     0.167170000000    -0.0682045  
Co33     Co     0.974890000000     0.014340000000     0.494910000000     0.832685   
Co34     Co     0.555860000000     0.014350000000     0.494940000000     0.832048   
Co35     Co     0.515380000000     0.473960000000     0.494950000000     0.833811   
Co36     Co     0.515370000000     0.054750000000     0.494950000000     0.833828   
Co37     Co     0.765380000000     0.304730000000     0.244910000000     0.833599   
Co38     Co     0.765380000000     0.223970000000     0.244940000000     0.833621   
Co39     Co     0.805870000000     0.264350000000     0.244860000000     0.832897   
Co40     Co     0.724880000000     0.264370000000     0.244910000000     0.832677   
H385     H      0.551450000000     0.112740000000     0.048010000000     0.0404058  
H386     H      0.577020000000     0.138220000000     0.079560000000     0.0472242  
H387     H      0.639890000000     0.076400000000     0.078980000000     0.0473067  
H388     H      0.614140000000     0.050600000000     0.047770000000     0.040425   
H389     H      0.619070000000     0.164400000000     0.084370000000     0.0389688  
H390     H      0.644170000000     0.189650000000     0.116470000000     0.0389774  
H391     H      0.661740000000     0.114320000000     0.155440000000     0.0389139  
H392     H      0.636630000000     0.089060000000     0.123350000000     0.03885    
H393     H      0.640910000000     0.202320000000     0.160830000000     0.0473399  
H394     H      0.666630000000     0.228120000000     0.192060000000     0.0404025  
H395     H      0.729330000000     0.165980000000     0.191840000000     0.0403261  
H396     H      0.703780000000     0.140500000000     0.160280000000     0.0471952  
H397     H      0.548100000000     0.109480000000     0.437240000000     0.0406914  
H398     H      0.574370000000     0.135760000000     0.406740000000     0.0468205  
H399     H      0.637430000000     0.074140000000     0.407470000000     0.0468377  
H400     H      0.611000000000     0.047550000000     0.437620000000     0.0406493  
H401     H      0.616450000000     0.162300000000     0.405270000000     0.0389061  
H402     H      0.643670000000     0.189400000000     0.376050000000     0.038455   
H403     H      0.664230000000     0.116430000000     0.334570000000     0.0388846  
H404     H      0.637010000000     0.089330000000     0.363780000000     0.0384031  
H405     H      0.643260000000     0.204600000000     0.332350000000     0.0468853  
H406     H      0.669710000000     0.231180000000     0.302220000000     0.0407715  
H407     H      0.732590000000     0.169240000000     0.302620000000     0.0407133  
H408     H      0.706320000000     0.142970000000     0.333110000000     0.0467731  
H409     H      0.729140000000     0.362980000000     0.192200000000     0.0404082  
H410     H      0.703360000000     0.388760000000     0.161010000000     0.0473024  
H411     H      0.641310000000     0.326120000000     0.160310000000     0.0472691  
H412     H      0.666780000000     0.300510000000     0.191840000000     0.0403796  
H413     H      0.615160000000     0.368150000000     0.155520000000     0.0390014  
H414     H      0.589930000000     0.393320000000     0.123440000000     0.0389205  
H415     H      0.665500000000     0.410760000000     0.084560000000     0.0390672  
H416     H      0.690730000000     0.385590000000     0.116640000000     0.0389468  
H417     H      0.639340000000     0.452780000000     0.079740000000     0.0472536  
H418     H      0.613890000000     0.478330000000     0.048150000000     0.0404459  
H419     H      0.551550000000     0.415840000000     0.047810000000     0.0404992  
H420     H      0.577310000000     0.390110000000     0.079060000000     0.0473097  
H421     H      0.916830000000     0.050330000000     0.048110000000     0.0403379  
H422     H      0.891370000000     0.075870000000     0.079700000000     0.0472039  
H423     H      0.953360000000     0.138570000000     0.079030000000     0.0473979  
H424     H      0.979140000000     0.112860000000     0.047780000000     0.0406111  
H425     H      0.865180000000     0.117870000000     0.084540000000     0.0389797  
H426     H      0.839960000000     0.143030000000     0.116630000000     0.0389629  
H427     H      0.915520000000     0.160510000000     0.155490000000     0.0389805  
H428     H      0.940750000000     0.135340000000     0.123410000000     0.0389386  
H429     H      0.827320000000     0.139890000000     0.161010000000     0.0472375  
H430     H      0.801560000000     0.165690000000     0.192200000000     0.0403926  
H431     H      0.863920000000     0.228160000000     0.191790000000     0.0403526  
H432     H      0.889370000000     0.202540000000     0.160250000000     0.047274   
H433     H      0.919820000000     0.481180000000     0.437510000000     0.0408029  
H434     H      0.893430000000     0.454600000000     0.407340000000     0.0470754  
H435     H      0.956500000000     0.392990000000     0.406630000000     0.0470854  
H436     H      0.982720000000     0.419250000000     0.437170000000     0.0408666  
H437     H      0.893880000000     0.439420000000     0.363640000000     0.038688   
H438     H      0.866670000000     0.412320000000     0.334420000000     0.039108   
H439     H      0.887230000000     0.339350000000     0.375890000000     0.0387445  
H440     H      0.914430000000     0.366440000000     0.405120000000     0.0390728  
H441     H      0.824570000000     0.385800000000     0.332980000000     0.0469753  
H442     H      0.798260000000     0.359520000000     0.302510000000     0.0407665  
H443     H      0.861130000000     0.297570000000     0.302080000000     0.0408409  
H444     H      0.887610000000     0.324150000000     0.332190000000     0.0470825  
H445     H      0.919930000000     0.047320000000     0.437370000000     0.0406663  
H446     H      0.893680000000     0.073650000000     0.406870000000     0.0467968  
H447     H      0.955800000000     0.136230000000     0.407430000000     0.0470043  
H448     H      0.982350000000     0.109740000000     0.437560000000     0.0408722  
H449     H      0.867340000000     0.115820000000     0.405400000000     0.0390468  
H450     H      0.840290000000     0.143100000000     0.376190000000     0.0385973  
H451     H      0.913450000000     0.163110000000     0.334560000000     0.0390833  
H452     H      0.940490000000     0.135830000000     0.363770000000     0.0386822  
H453     H      0.824990000000     0.142660000000     0.332540000000     0.0469396  
H454     H      0.798430000000     0.169080000000     0.302380000000     0.0408007  
H455     H      0.860830000000     0.231520000000     0.302490000000     0.0407896  
H456     H      0.887090000000     0.205250000000     0.333020000000     0.0468428  
H457     H      0.669800000000     0.297510000000     0.302290000000     0.0407757  
H458     H      0.643380000000     0.324080000000     0.332460000000     0.0469034  
H459     H      0.706420000000     0.385730000000     0.333160000000     0.0469215  
H460     H      0.732670000000     0.359460000000     0.302640000000     0.040799   
H461     H      0.643820000000     0.339280000000     0.376160000000     0.0385003  
H462     H      0.616600000000     0.366370000000     0.405370000000     0.0390023  
H463     H      0.637100000000     0.439340000000     0.363880000000     0.0385082  
H464     H      0.664330000000     0.412250000000     0.334650000000     0.0389729  
H465     H      0.574490000000     0.392880000000     0.406850000000     0.0469255  
H466     H      0.548200000000     0.419160000000     0.437320000000     0.0407473  
H467     H      0.611060000000     0.481140000000     0.437680000000     0.0407537  
H468     H      0.637510000000     0.454550000000     0.407560000000     0.0469202  
H469     H      0.916530000000     0.478080000000     0.047650000000     0.0405059  
H470     H      0.890750000000     0.452270000000     0.078830000000     0.0473539  
H471     H      0.953600000000     0.390430000000     0.079420000000     0.0473126  
H472     H      0.979210000000     0.415920000000     0.047910000000     0.0405103  
H473     H      0.893990000000     0.439590000000     0.123200000000     0.0389852  
H474     H      0.868880000000     0.414320000000     0.155290000000     0.038971   
H475     H      0.886420000000     0.339010000000     0.116280000000     0.0390065  
H476     H      0.911530000000     0.364270000000     0.084190000000     0.0390784  
H477     H      0.826840000000     0.388150000000     0.160120000000     0.0472135  
H478     H      0.801330000000     0.362680000000     0.191720000000     0.0403219  
H479     H      0.864040000000     0.300550000000     0.191910000000     0.0403792  
H480     H      0.889720000000     0.326340000000     0.160650000000     0.0474613  
O137     O      0.956710000000     0.487970000000     0.019060000000    -0.352612   
O138     O      0.574010000000     0.040720000000     0.019130000000    -0.352393   
O139     O      0.541730000000     0.455880000000     0.019200000000    -0.352575   
O140     O      0.988990000000     0.072820000000     0.019180000000    -0.352261   
O141     O      0.573980000000     0.488020000000     0.019190000000    -0.352188   
O142     O      0.956760000000     0.040670000000     0.019150000000    -0.3524     
O143     O      0.541760000000     0.072850000000     0.019150000000    -0.352641   
O144     O      0.988950000000     0.455850000000     0.019110000000    -0.35248    
O145     O      0.958870000000     0.038610000000     0.467710000000    -0.356591   
O146     O      0.571900000000     0.490080000000     0.467750000000    -0.356535   
O147     O      0.991180000000     0.457990000000     0.467680000000    -0.356357   
O148     O      0.539610000000     0.070730000000     0.467710000000    -0.356935   
O149     O      0.571860000000     0.038610000000     0.467720000000    -0.356701   
O150     O      0.958930000000     0.490120000000     0.467660000000    -0.356344   
O151     O      0.991100000000     0.070750000000     0.467740000000    -0.356419   
O152     O      0.539650000000     0.457960000000     0.467750000000    -0.356801   
O153     O      0.515380000000     0.014350000000     0.005280000000    -0.584502   
O154     O      0.791720000000     0.322820000000     0.220640000000    -0.353178   
O155     O      0.738990000000     0.205860000000     0.220710000000    -0.352958   
O156     O      0.823980000000     0.237950000000     0.220680000000    -0.352992   
O157     O      0.706740000000     0.290750000000     0.220730000000    -0.353061   
O158     O      0.791750000000     0.205810000000     0.220750000000    -0.353105   
O159     O      0.738990000000     0.322880000000     0.220740000000    -0.353149   
O160     O      0.706760000000     0.238000000000     0.220700000000    -0.353071   
O161     O      0.823950000000     0.290690000000     0.220600000000    -0.353188   
O162     O      0.741170000000     0.320710000000     0.272170000000    -0.356788   
O163     O      0.789640000000     0.208020000000     0.272170000000    -0.356568   
O164     O      0.821950000000     0.288620000000     0.272030000000    -0.356382   
O165     O      0.708850000000     0.240110000000     0.272120000000    -0.356282   
O166     O      0.741130000000     0.208000000000     0.272160000000    -0.356675   
O167     O      0.789680000000     0.320730000000     0.272090000000    -0.356684   
O168     O      0.708890000000     0.288610000000     0.272150000000    -0.356644   
O169     O      0.821900000000     0.240150000000     0.272090000000    -0.356596   
O170     O      0.765370000000     0.264350000000     0.234560000000    -0.585653   
C801     C      0.965990000000     0.465090000000     0.526710000000     0.351056   
C802     C      0.564710000000     0.063600000000     0.526790000000     0.350646   
C803     C      0.564670000000     0.465140000000     0.526850000000     0.350515   
C804     C      0.966050000000     0.063550000000     0.526820000000     0.350641   
C805     C      0.968690000000     0.060980000000     0.959340000000     0.344016   
C806     C      0.562070000000     0.467720000000     0.959370000000     0.344102   
C807     C      0.968780000000     0.467760000000     0.959270000000     0.343863   
C808     C      0.562020000000     0.060960000000     0.959330000000     0.344131   
C809     C      0.814640000000     0.313560000000     0.712960000000     0.351191   
C810     C      0.716050000000     0.215120000000     0.713060000000     0.350913   
C811     C      0.814680000000     0.215050000000     0.713080000000     0.350914   
C812     C      0.716040000000     0.313640000000     0.713110000000     0.350873   
C813     C      0.718750000000     0.310940000000     0.780550000000     0.344159   
C814     C      0.812070000000     0.217820000000     0.780530000000     0.343772   
C815     C      0.812120000000     0.310970000000     0.780440000000     0.344001   
C816     C      0.718690000000     0.217760000000     0.780530000000     0.343789   
C817     C      0.580710000000     0.079590000000     0.545330000000    -0.100433   
C818     C      0.570770000000     0.104580000000     0.554530000000     0.0232204  
C819     C      0.585480000000     0.119280000000     0.572540000000    -0.0681175  
C820     C      0.610470000000     0.109320000000     0.581810000000     0.0299695  
C821     C      0.620520000000     0.084440000000     0.572480000000    -0.068072   
C822     C      0.605830000000     0.069750000000     0.554450000000     0.0231731  
C823     C      0.625870000000     0.124720000000     0.601300000000     0.000259447
C824     C      0.628100000000     0.153250000000     0.599910000000    -0.0370067  
C825     C      0.642470000000     0.167730000000     0.618310000000    -0.0371802  
C826     C      0.654940000000     0.154000000000     0.638530000000     0.000363812
C827     C      0.652710000000     0.125460000000     0.639920000000    -0.0372155  
C828     C      0.638340000000     0.110990000000     0.621510000000    -0.0370285  
C829     C      0.670330000000     0.169400000000     0.658020000000     0.0299726  
C830     C      0.660270000000     0.194270000000     0.667340000000    -0.0680698  
C831     C      0.674950000000     0.208970000000     0.685380000000     0.0232407  
C832     C      0.700070000000     0.199140000000     0.694510000000    -0.100507   
C833     C      0.710020000000     0.174130000000     0.685320000000     0.0231475  
C834     C      0.695320000000     0.159440000000     0.667290000000    -0.0680716  
C835     C      0.577470000000     0.076420000000     0.939980000000    -0.0982955  
C836     C      0.567520000000     0.101440000000     0.930850000000     0.0215126  
C837     C      0.582650000000     0.116620000000     0.913460000000    -0.0676051  
C838     C      0.608060000000     0.107130000000     0.904770000000     0.0292514  
C839     C      0.617800000000     0.081900000000     0.913590000000    -0.0675127  
C840     C      0.602690000000     0.066730000000     0.930990000000     0.021539   
C841     C      0.624520000000     0.123650000000     0.886840000000     0.000379322
C842     C      0.626570000000     0.152070000000     0.889770000000    -0.037172   
C843     C      0.642200000000     0.167610000000     0.873050000000    -0.0372858  
C844     C      0.656150000000     0.155090000000     0.852990000000     0.000378023
C845     C      0.654100000000     0.126660000000     0.850060000000    -0.0371887  
C846     C      0.638470000000     0.111120000000     0.866790000000    -0.0372835  
C847     C      0.672620000000     0.171600000000     0.835070000000     0.0292784  
C848     C      0.662880000000     0.196820000000     0.826240000000    -0.0674477  
C849     C      0.678010000000     0.212000000000     0.808840000000     0.021488   
C850     C      0.703250000000     0.202310000000     0.799860000000    -0.0982422  
C851     C      0.713180000000     0.177280000000     0.809010000000     0.0214804  
C852     C      0.698030000000     0.162110000000     0.826390000000    -0.067535   
C853     C      0.700050000000     0.329650000000     0.694580000000    -0.100388   
C854     C      0.709950000000     0.354720000000     0.685500000000     0.0231772  
C855     C      0.695260000000     0.369440000000     0.667480000000    -0.0680661  
C856     C      0.670320000000     0.359460000000     0.658120000000     0.0299915  
C857     C      0.660290000000     0.334530000000     0.667350000000    -0.068038   
C858     C      0.674990000000     0.319780000000     0.685360000000     0.0231431  
C859     C      0.654950000000     0.374880000000     0.638640000000     0.000287786
C860     C      0.626360000000     0.377160000000     0.640010000000    -0.0371279  
C861     C      0.611910000000     0.391580000000     0.621620000000    -0.0370235  
C862     C      0.625710000000     0.404030000000     0.601430000000     0.000300918
C863     C      0.654300000000     0.401750000000     0.600070000000    -0.0371158  
C864     C      0.668750000000     0.387340000000     0.618450000000    -0.037014   
C865     C      0.610330000000     0.419430000000     0.581940000000     0.0299568  
C866     C      0.620360000000     0.444360000000     0.572690000000    -0.0680261  
C867     C      0.605680000000     0.459060000000     0.554660000000     0.0231976  
C868     C      0.580640000000     0.449170000000     0.545420000000    -0.10035    
C869     C      0.570730000000     0.424110000000     0.554530000000     0.0231252  
C870     C      0.585410000000     0.409430000000     0.572570000000    -0.0680069  
C871     C      0.950070000000     0.079520000000     0.545390000000    -0.100321   
C872     C      0.925020000000     0.069610000000     0.554620000000     0.0231181  
C873     C      0.910340000000     0.084300000000     0.572660000000    -0.0680952  
C874     C      0.920350000000     0.109230000000     0.581910000000     0.0299907  
C875     C      0.945270000000     0.119250000000     0.572540000000    -0.067996   
C876     C      0.959960000000     0.104580000000     0.554490000000     0.0231834  
C877     C      0.904970000000     0.124620000000     0.601410000000     0.000277933
C878     C      0.876380000000     0.126890000000     0.600050000000    -0.0370565  
C879     C      0.861930000000     0.141300000000     0.618440000000    -0.037121   
C880     C      0.875730000000     0.153760000000     0.638620000000     0.000381418
C881     C      0.904320000000     0.151490000000     0.639990000000    -0.037182   
C882     C      0.918770000000     0.137080000000     0.621590000000    -0.03698    
C883     C      0.860360000000     0.169200000000     0.658100000000     0.0299523  
C884     C      0.835430000000     0.159230000000     0.667460000000    -0.0679369  
C885     C      0.820750000000     0.173950000000     0.685490000000     0.0231507  
C886     C      0.830660000000     0.199020000000     0.694550000000    -0.100377   
C887     C      0.855720000000     0.208880000000     0.685310000000     0.0231669  
C888     C      0.870390000000     0.194140000000     0.667310000000    -0.0680528  
C889     C      0.953360000000     0.452310000000     0.939910000000    -0.09817    
C890     C      0.928140000000     0.462000000000     0.930890000000     0.0216371  
C891     C      0.913050000000     0.446830000000     0.913470000000    -0.0674365  
C892     C      0.922800000000     0.421620000000     0.904650000000     0.0294275  
C893     C      0.948210000000     0.412120000000     0.913360000000    -0.0674997  
C894     C      0.963320000000     0.427290000000     0.930760000000     0.0215988  
C895     C      0.906360000000     0.405100000000     0.886700000000     0.000426156
C896     C      0.892410000000     0.417620000000     0.866640000000    -0.0370584  
C897     C      0.876790000000     0.402090000000     0.849910000000    -0.0371227  
C898     C      0.874730000000     0.373670000000     0.852840000000     0.00056027 
C899     C      0.888690000000     0.361140000000     0.872890000000    -0.0372119  
C900     C      0.904310000000     0.376670000000     0.889620000000    -0.0369911  
C901     C      0.858260000000     0.357150000000     0.834910000000     0.02934    
C902     C      0.832840000000     0.366650000000     0.826250000000    -0.0674358  
C903     C      0.817680000000     0.351470000000     0.808890000000     0.0216333  
C904     C      0.827600000000     0.326440000000     0.799740000000    -0.0982062  
C905     C      0.852840000000     0.316740000000     0.808710000000     0.0215924  
C906     C      0.867980000000     0.331920000000     0.826080000000    -0.0673285  
C907     C      0.953230000000     0.076440000000     0.940020000000    -0.0982853  
C908     C      0.928080000000     0.066640000000     0.930930000000     0.0215059  
C909     C      0.912930000000     0.081810000000     0.913560000000    -0.0674491  
C910     C      0.922560000000     0.107110000000     0.904820000000     0.0292297  
C911     C      0.947910000000     0.116700000000     0.913590000000    -0.067357   
C912     C      0.963070000000     0.101550000000     0.930980000000     0.0215582  
C913     C      0.906080000000     0.123610000000     0.886900000000     0.000454065
C914     C      0.877610000000     0.125840000000     0.889880000000    -0.0372156  
C915     C      0.862120000000     0.141500000000     0.873160000000    -0.0371657  
C916     C      0.874700000000     0.155320000000     0.853060000000     0.000427623
C917     C      0.903170000000     0.153100000000     0.850080000000    -0.0371657  
C918     C      0.918670000000     0.137430000000     0.866810000000    -0.0372227  
C919     C      0.858210000000     0.171780000000     0.835120000000     0.0292202  
C920     C      0.832870000000     0.162180000000     0.826360000000    -0.0673751  
C921     C      0.817710000000     0.177290000000     0.808950000000     0.0215079  
C922     C      0.827540000000     0.202390000000     0.799880000000    -0.0980111  
C923     C      0.852690000000     0.212210000000     0.808950000000     0.0214307  
C924     C      0.867840000000     0.197080000000     0.826340000000    -0.0673457  
C925     C      0.703320000000     0.326390000000     0.799910000000    -0.0981583  
C926     C      0.678110000000     0.316690000000     0.808920000000     0.0215396  
C927     C      0.663000000000     0.331860000000     0.826330000000    -0.0673879  
C928     C      0.672730000000     0.357080000000     0.835150000000     0.0292545  
C929     C      0.698140000000     0.366580000000     0.826440000000    -0.067352   
C930     C      0.713270000000     0.351420000000     0.809050000000     0.0214982  
C931     C      0.656280000000     0.373600000000     0.853090000000     0.00049749 
C932     C      0.642340000000     0.361070000000     0.873140000000    -0.0372282  
C933     C      0.626710000000     0.376610000000     0.889880000000    -0.0371187  
C934     C      0.624650000000     0.405030000000     0.886940000000     0.000455408
C935     C      0.638590000000     0.417550000000     0.866880000000    -0.0371877  
C936     C      0.654210000000     0.402020000000     0.850150000000    -0.0371073  
C937     C      0.608180000000     0.421540000000     0.904870000000     0.0292969  
C938     C      0.582760000000     0.412040000000     0.913560000000    -0.067449   
C939     C      0.567610000000     0.427210000000     0.930930000000     0.0215955  
C940     C      0.577530000000     0.452250000000     0.940050000000    -0.0983024  
C941     C      0.602760000000     0.461950000000     0.931070000000     0.0215568  
C942     C      0.617890000000     0.446770000000     0.913680000000    -0.0674689  
C943     C      0.949960000000     0.449090000000     0.545230000000    -0.100338   
C944     C      0.924830000000     0.458930000000     0.554320000000     0.0231603  
C945     C      0.910120000000     0.444220000000     0.572330000000    -0.0679361  
C946     C      0.920150000000     0.419330000000     0.581660000000     0.0299591  
C947     C      0.945150000000     0.409370000000     0.572410000000    -0.068027   
C948     C      0.959890000000     0.424080000000     0.554410000000     0.0231713  
C949     C      0.904740000000     0.403940000000     0.601130000000     0.000369819
C950     C      0.892270000000     0.417670000000     0.621350000000    -0.037085   
C951     C      0.877900000000     0.403190000000     0.639750000000    -0.0370735  
C952     C      0.875670000000     0.374660000000     0.638350000000     0.000342934
C953     C      0.888130000000     0.360930000000     0.618130000000    -0.0370843  
C954     C      0.902510000000     0.375410000000     0.599730000000    -0.0370716  
C955     C      0.860290000000     0.359250000000     0.657850000000     0.0300944  
C956     C      0.835320000000     0.369210000000     0.667140000000    -0.0681062  
C957     C      0.820630000000     0.354520000000     0.685180000000     0.0232537  
C958     C      0.830600000000     0.329530000000     0.694380000000    -0.100617   
C959     C      0.855700000000     0.319700000000     0.685230000000     0.0234474  
C960     C      0.870370000000     0.334380000000     0.667170000000    -0.0682085  
Co41     Co     0.974890000000     0.014340000000     0.994910000000     0.831451   
Co42     Co     0.555860000000     0.014350000000     0.994940000000     0.830744   
Co43     Co     0.515380000000     0.473960000000     0.994950000000     0.832505   
Co44     Co     0.515370000000     0.054750000000     0.994950000000     0.832588   
Co45     Co     0.765380000000     0.304730000000     0.744910000000     0.833605   
Co46     Co     0.765380000000     0.223970000000     0.744940000000     0.83363    
Co47     Co     0.805870000000     0.264350000000     0.744860000000     0.832906   
Co48     Co     0.724880000000     0.264370000000     0.744910000000     0.832684   
H481     H      0.551450000000     0.112740000000     0.548010000000     0.0403148  
H482     H      0.577020000000     0.138220000000     0.579560000000     0.0472042  
H483     H      0.639890000000     0.076400000000     0.578980000000     0.0472771  
H484     H      0.614140000000     0.050600000000     0.547770000000     0.0403273  
H485     H      0.619070000000     0.164400000000     0.584370000000     0.0388677  
H486     H      0.644170000000     0.189650000000     0.616470000000     0.0389484  
H487     H      0.661740000000     0.114320000000     0.655440000000     0.0389217  
H488     H      0.636630000000     0.089060000000     0.623350000000     0.0388417  
H489     H      0.640910000000     0.202320000000     0.660830000000     0.0473374  
H490     H      0.666630000000     0.228120000000     0.692060000000     0.0404019  
H491     H      0.729330000000     0.165980000000     0.691840000000     0.0403286  
H492     H      0.703780000000     0.140500000000     0.660270000000     0.0471726  
H493     H      0.548100000000     0.109480000000     0.937240000000     0.0406468  
H494     H      0.574370000000     0.135760000000     0.906740000000     0.0467818  
H495     H      0.637430000000     0.074140000000     0.907470000000     0.0467918  
H496     H      0.611000000000     0.047550000000     0.937620000000     0.0405987  
H497     H      0.616450000000     0.162300000000     0.905270000000     0.0388424  
H498     H      0.643670000000     0.189400000000     0.876050000000     0.0384178  
H499     H      0.664230000000     0.116430000000     0.834570000000     0.0388876  
H500     H      0.637010000000     0.089330000000     0.863780000000     0.0384049  
H501     H      0.643260000000     0.204600000000     0.832350000000     0.0468789  
H502     H      0.669710000000     0.231180000000     0.802220000000     0.0407719  
H503     H      0.732590000000     0.169240000000     0.802620000000     0.0407122  
H504     H      0.706320000000     0.142970000000     0.833110000000     0.0467594  
H505     H      0.729140000000     0.362980000000     0.692210000000     0.0404065  
H506     H      0.703360000000     0.388760000000     0.661010000000     0.0473008  
H507     H      0.641310000000     0.326120000000     0.660310000000     0.047258   
H508     H      0.666780000000     0.300510000000     0.691840000000     0.0403767  
H509     H      0.615160000000     0.368150000000     0.655520000000     0.039004   
H510     H      0.589930000000     0.393320000000     0.623440000000     0.0389187  
H511     H      0.665500000000     0.410760000000     0.584560000000     0.0389971  
H512     H      0.690730000000     0.385590000000     0.616640000000     0.0389106  
H513     H      0.639340000000     0.452780000000     0.579740000000     0.0472284  
H514     H      0.613890000000     0.478330000000     0.548140000000     0.0403651  
H515     H      0.551550000000     0.415840000000     0.547810000000     0.0404124  
H516     H      0.577310000000     0.390110000000     0.579060000000     0.0472746  
H517     H      0.916830000000     0.050330000000     0.548110000000     0.0402598  
H518     H      0.891370000000     0.075870000000     0.579700000000     0.0471936  
H519     H      0.953360000000     0.138570000000     0.579030000000     0.0473643  
H520     H      0.979140000000     0.112860000000     0.547780000000     0.0405238  
H521     H      0.865180000000     0.117870000000     0.584540000000     0.0389108  
H522     H      0.839960000000     0.143030000000     0.616620000000     0.0389275  
H523     H      0.915520000000     0.160510000000     0.655490000000     0.0390148  
H524     H      0.940750000000     0.135340000000     0.623410000000     0.0389339  
H525     H      0.827320000000     0.139890000000     0.661000000000     0.0472269  
H526     H      0.801560000000     0.165690000000     0.692200000000     0.0404093  
H527     H      0.863920000000     0.228160000000     0.691790000000     0.0403623  
H528     H      0.889370000000     0.202540000000     0.660250000000     0.0472578  
H529     H      0.919820000000     0.481180000000     0.937520000000     0.0407537  
H530     H      0.893430000000     0.454600000000     0.907340000000     0.0470343  
H531     H      0.956500000000     0.392990000000     0.906630000000     0.0470428  
H532     H      0.982720000000     0.419250000000     0.937170000000     0.0408119  
H533     H      0.893880000000     0.439420000000     0.863650000000     0.0386944  
H534     H      0.866670000000     0.412320000000     0.834420000000     0.039112   
H535     H      0.887230000000     0.339350000000     0.875890000000     0.0387063  
H536     H      0.914430000000     0.366440000000     0.905120000000     0.0390098  
H537     H      0.824570000000     0.385800000000     0.832980000000     0.0469584  
H538     H      0.798260000000     0.359520000000     0.802510000000     0.0407659  
H539     H      0.861130000000     0.297570000000     0.802080000000     0.0408383  
H540     H      0.887610000000     0.324150000000     0.832190000000     0.047061   
H541     H      0.919930000000     0.047320000000     0.937370000000     0.0406153  
H542     H      0.893680000000     0.073650000000     0.906870000000     0.0467606  
H543     H      0.955800000000     0.136230000000     0.907430000000     0.0469594  
H544     H      0.982350000000     0.109740000000     0.937560000000     0.0408188  
H545     H      0.867340000000     0.115820000000     0.905400000000     0.0389837  
H546     H      0.840290000000     0.143100000000     0.876190000000     0.0385595  
H547     H      0.913450000000     0.163110000000     0.834560000000     0.0390864  
H548     H      0.940490000000     0.135830000000     0.863770000000     0.0386843  
H549     H      0.824990000000     0.142660000000     0.832540000000     0.0469323  
H550     H      0.798430000000     0.169080000000     0.802380000000     0.0407997  
H551     H      0.860830000000     0.231520000000     0.802490000000     0.0407883  
H552     H      0.887090000000     0.205250000000     0.833020000000     0.0468294  
H553     H      0.669800000000     0.297510000000     0.802300000000     0.0407731  
H554     H      0.643380000000     0.324080000000     0.832460000000     0.0468939  
H555     H      0.706420000000     0.385730000000     0.833170000000     0.0468901  
H556     H      0.732670000000     0.359460000000     0.802640000000     0.040803   
H557     H      0.643820000000     0.339280000000     0.876160000000     0.0384696  
H558     H      0.616600000000     0.366370000000     0.905380000000     0.0389134  
H559     H      0.637100000000     0.439340000000     0.863880000000     0.038505   
H560     H      0.664330000000     0.412250000000     0.834650000000     0.0389817  
H561     H      0.574490000000     0.392880000000     0.906850000000     0.0468981  
H562     H      0.548200000000     0.419160000000     0.937320000000     0.0406934  
H563     H      0.611060000000     0.481140000000     0.937680000000     0.0406952  
H564     H      0.637510000000     0.454550000000     0.907560000000     0.0468813  
H565     H      0.916530000000     0.478080000000     0.547650000000     0.0404251  
H566     H      0.890750000000     0.452270000000     0.578830000000     0.0473152  
H567     H      0.953600000000     0.390430000000     0.579420000000     0.0472977  
H568     H      0.979210000000     0.415920000000     0.547910000000     0.0404331  
H569     H      0.893990000000     0.439590000000     0.623190000000     0.038982   
H570     H      0.868880000000     0.414320000000     0.655290000000     0.0389776  
H571     H      0.886420000000     0.339010000000     0.616280000000     0.0389765  
H572     H      0.911530000000     0.364270000000     0.584190000000     0.0389774  
H573     H      0.826840000000     0.388150000000     0.660130000000     0.0472161  
H574     H      0.801330000000     0.362680000000     0.691720000000     0.0403174  
H575     H      0.864040000000     0.300550000000     0.691910000000     0.0403791  
H576     H      0.889720000000     0.326340000000     0.660650000000     0.0474563  
O171     O      0.956710000000     0.487970000000     0.519060000000    -0.353136   
O172     O      0.574010000000     0.040720000000     0.519130000000    -0.352883   
O173     O      0.541730000000     0.455880000000     0.519200000000    -0.353116   
O174     O      0.988990000000     0.072820000000     0.519180000000    -0.352816   
O175     O      0.573980000000     0.488020000000     0.519190000000    -0.352732   
O176     O      0.956760000000     0.040670000000     0.519160000000    -0.352929   
O177     O      0.541760000000     0.072850000000     0.519160000000    -0.3531     
O178     O      0.988950000000     0.455850000000     0.519110000000    -0.353012   
O179     O      0.958870000000     0.038610000000     0.967710000000    -0.356538   
O180     O      0.571900000000     0.490080000000     0.967750000000    -0.356494   
O181     O      0.991180000000     0.457990000000     0.967680000000    -0.356413   
O182     O      0.539610000000     0.070730000000     0.967710000000    -0.356873   
O183     O      0.571860000000     0.038610000000     0.967720000000    -0.356644   
O184     O      0.958930000000     0.490120000000     0.967660000000    -0.356408   
O185     O      0.991100000000     0.070750000000     0.967740000000    -0.35638    
O186     O      0.539650000000     0.457960000000     0.967750000000    -0.356753   
O187     O      0.515380000000     0.014350000000     0.505280000000    -0.585734   
O188     O      0.791720000000     0.322820000000     0.720640000000    -0.353176   
O189     O      0.738990000000     0.205860000000     0.720710000000    -0.352953   
O190     O      0.823980000000     0.237950000000     0.720680000000    -0.353063   
O191     O      0.706740000000     0.290750000000     0.720730000000    -0.353075   
O192     O      0.791750000000     0.205810000000     0.720750000000    -0.353175   
O193     O      0.738990000000     0.322880000000     0.720740000000    -0.353165   
O194     O      0.706760000000     0.238000000000     0.720700000000    -0.353068   
O195     O      0.823950000000     0.290690000000     0.720600000000    -0.353183   
O196     O      0.741170000000     0.320710000000     0.772170000000    -0.356786   
O197     O      0.789640000000     0.208020000000     0.772170000000    -0.356571   
O198     O      0.821950000000     0.288620000000     0.772030000000    -0.356381   
O199     O      0.708850000000     0.240110000000     0.772120000000    -0.356281   
O200     O      0.741130000000     0.208000000000     0.772160000000    -0.356674   
O201     O      0.789680000000     0.320730000000     0.772090000000    -0.356683   
O202     O      0.708890000000     0.288610000000     0.772150000000    -0.356639   
O203     O      0.821900000000     0.240150000000     0.772090000000    -0.356599   
O204     O      0.765370000000     0.264350000000     0.734560000000    -0.585657   
C961     C      0.965990000000     0.965090000000     0.026710000000     0.350746   
C962     C      0.564710000000     0.563600000000     0.026780000000     0.350507   
C963     C      0.564670000000     0.965140000000     0.026850000000     0.350331   
C964     C      0.966050000000     0.563550000000     0.026820000000     0.350428   
C965     C      0.968690000000     0.560980000000     0.459340000000     0.343968   
C966     C      0.562070000000     0.967720000000     0.459370000000     0.344046   
C967     C      0.968780000000     0.967760000000     0.459260000000     0.344007   
C968     C      0.562020000000     0.560950000000     0.459330000000     0.344349   
C969     C      0.814640000000     0.813560000000     0.212960000000     0.351191   
C970     C      0.716050000000     0.715120000000     0.213060000000     0.351092   
C971     C      0.814680000000     0.715050000000     0.213070000000     0.350822   
C972     C      0.716040000000     0.813640000000     0.213110000000     0.350746   
C973     C      0.718750000000     0.810940000000     0.280550000000     0.34408    
C974     C      0.812070000000     0.717810000000     0.280530000000     0.343635   
C975     C      0.812120000000     0.810970000000     0.280440000000     0.344006   
C976     C      0.718690000000     0.717760000000     0.280530000000     0.343757   
C977     C      0.580710000000     0.579590000000     0.045330000000    -0.100078   
C978     C      0.570770000000     0.604590000000     0.054530000000     0.0230821  
C979     C      0.585480000000     0.619280000000     0.072540000000    -0.0679745  
C980     C      0.610470000000     0.609320000000     0.081810000000     0.029912   
C981     C      0.620520000000     0.584440000000     0.072480000000    -0.0678768  
C982     C      0.605830000000     0.569740000000     0.054450000000     0.0230461  
C983     C      0.625870000000     0.624710000000     0.101300000000     0.000348808
C984     C      0.628100000000     0.653250000000     0.099900000000    -0.037089   
C985     C      0.642470000000     0.667730000000     0.118310000000    -0.0370678  
C986     C      0.654940000000     0.654000000000     0.138530000000     0.000339683
C987     C      0.652710000000     0.625460000000     0.139920000000    -0.037195   
C988     C      0.638340000000     0.610990000000     0.121510000000    -0.037032   
C989     C      0.670330000000     0.669400000000     0.158010000000     0.0299826  
C990     C      0.660270000000     0.694280000000     0.167340000000    -0.0681056  
C991     C      0.674950000000     0.708970000000     0.185380000000     0.0233142  
C992     C      0.700070000000     0.699140000000     0.194510000000    -0.100601   
C993     C      0.710020000000     0.674130000000     0.185320000000     0.0232015  
C994     C      0.695320000000     0.659440000000     0.167290000000    -0.0680944  
C995     C      0.577470000000     0.576420000000     0.439990000000    -0.0981878  
C996     C      0.567520000000     0.601450000000     0.430840000000     0.0215243  
C997     C      0.582650000000     0.616620000000     0.413460000000    -0.0675571  
C998     C      0.608060000000     0.607130000000     0.404770000000     0.0292485  
C999     C      0.617800000000     0.581900000000     0.413590000000    -0.0673719  
C1000    C      0.602690000000     0.566720000000     0.430990000000     0.0214828  
C1001    C      0.624520000000     0.623650000000     0.386840000000     0.000420352
C1002    C      0.626570000000     0.652070000000     0.389770000000    -0.0371548  
C1003    C      0.642200000000     0.667610000000     0.373050000000    -0.0372729  
C1004    C      0.656150000000     0.655080000000     0.352990000000     0.000409832
C1005    C      0.654100000000     0.626660000000     0.350060000000    -0.0371783  
C1006    C      0.638470000000     0.611120000000     0.366790000000    -0.0372696  
C1007    C      0.672620000000     0.671600000000     0.335070000000     0.0292741  
C1008    C      0.662880000000     0.696820000000     0.326240000000    -0.067419   
C1009    C      0.678010000000     0.712000000000     0.308840000000     0.0214418  
C1010    C      0.703250000000     0.702300000000     0.299860000000    -0.0981825  
C1011    C      0.713180000000     0.677280000000     0.309010000000     0.0214961  
C1012    C      0.698030000000     0.662110000000     0.326390000000    -0.0675231  
C1013    C      0.700050000000     0.829660000000     0.194570000000    -0.10025    
C1014    C      0.709950000000     0.854720000000     0.185500000000     0.0231578  
C1015    C      0.695260000000     0.869440000000     0.167480000000    -0.0680355  
C1016    C      0.670320000000     0.859460000000     0.158120000000     0.0299719  
C1017    C      0.660290000000     0.834520000000     0.167350000000    -0.0680346  
C1018    C      0.674990000000     0.819780000000     0.185350000000     0.0231066  
C1019    C      0.654950000000     0.874880000000     0.138640000000     0.000326644
C1020    C      0.626360000000     0.877160000000     0.140010000000    -0.0371191  
C1021    C      0.611910000000     0.891580000000     0.121620000000    -0.0370195  
C1022    C      0.625710000000     0.904020000000     0.101430000000     0.000356616
C1023    C      0.654300000000     0.901740000000     0.100070000000    -0.0370824  
C1024    C      0.668750000000     0.887340000000     0.118460000000    -0.0369973  
C1025    C      0.610330000000     0.919430000000     0.081940000000     0.0299312  
C1026    C      0.620360000000     0.944360000000     0.072690000000    -0.0678733  
C1027    C      0.605680000000     0.959070000000     0.054660000000     0.0230984  
C1028    C      0.580640000000     0.949170000000     0.045420000000    -0.100084   
C1029    C      0.570730000000     0.924110000000     0.054530000000     0.0230775  
C1030    C      0.585410000000     0.909430000000     0.072570000000    -0.0679057  
C1031    C      0.950070000000     0.579520000000     0.045390000000    -0.100104   
C1032    C      0.925020000000     0.569600000000     0.054620000000     0.0230491  
C1033    C      0.910340000000     0.584300000000     0.072650000000    -0.0679372  
C1034    C      0.920350000000     0.609230000000     0.081910000000     0.0299624  
C1035    C      0.945270000000     0.619250000000     0.072540000000    -0.0679164  
C1036    C      0.959960000000     0.604570000000     0.054490000000     0.0231887  
C1037    C      0.904970000000     0.624620000000     0.101400000000     0.000324292
C1038    C      0.876380000000     0.626890000000     0.100050000000    -0.0370439  
C1039    C      0.861930000000     0.641300000000     0.118440000000    -0.0370659  
C1040    C      0.875730000000     0.653760000000     0.138620000000     0.00033033 
C1041    C      0.904320000000     0.651480000000     0.139980000000    -0.037055   
C1042    C      0.918770000000     0.637080000000     0.121590000000    -0.0370039  
C1043    C      0.860360000000     0.669190000000     0.158100000000     0.029985   
C1044    C      0.835430000000     0.659220000000     0.167470000000    -0.0680151  
C1045    C      0.820750000000     0.673950000000     0.185490000000     0.0232307  
C1046    C      0.830660000000     0.699020000000     0.194550000000    -0.100459   
C1047    C      0.855720000000     0.708880000000     0.185310000000     0.0232053  
C1048    C      0.870390000000     0.694140000000     0.167310000000    -0.0680574  
C1049    C      0.953360000000     0.952310000000     0.439900000000    -0.0981438  
C1050    C      0.928140000000     0.962000000000     0.430890000000     0.0217103  
C1051    C      0.913050000000     0.946830000000     0.413470000000    -0.0673757  
C1052    C      0.922800000000     0.921610000000     0.404650000000     0.0294655  
C1053    C      0.948210000000     0.912120000000     0.413350000000    -0.0674904  
C1054    C      0.963320000000     0.927290000000     0.430760000000     0.0216501  
C1055    C      0.906360000000     0.905100000000     0.386700000000     0.000452018
C1056    C      0.892410000000     0.917620000000     0.366640000000    -0.037033   
C1057    C      0.876790000000     0.902090000000     0.349910000000    -0.0371044  
C1058    C      0.874730000000     0.873670000000     0.352840000000     0.00056502 
C1059    C      0.888690000000     0.861140000000     0.372890000000    -0.0371856  
C1060    C      0.904310000000     0.876670000000     0.389620000000    -0.0369725  
C1061    C      0.858260000000     0.857150000000     0.334910000000     0.0293795  
C1062    C      0.832840000000     0.866650000000     0.326250000000    -0.06744    
C1063    C      0.817680000000     0.851470000000     0.308890000000     0.0216504  
C1064    C      0.827600000000     0.826440000000     0.299740000000    -0.0982036  
C1065    C      0.852840000000     0.816740000000     0.308710000000     0.0215915  
C1066    C      0.867980000000     0.831920000000     0.326090000000    -0.0673528  
C1067    C      0.953230000000     0.576440000000     0.440020000000    -0.0981577  
C1068    C      0.928080000000     0.566640000000     0.430930000000     0.0215362  
C1069    C      0.912930000000     0.581810000000     0.413560000000    -0.0674068  
C1070    C      0.922560000000     0.607110000000     0.404830000000     0.0292845  
C1071    C      0.947910000000     0.616700000000     0.413590000000    -0.0673288  
C1072    C      0.963070000000     0.601550000000     0.430980000000     0.0215721  
C1073    C      0.906080000000     0.623600000000     0.386900000000     0.000468251
C1074    C      0.877610000000     0.625840000000     0.389880000000    -0.0371851  
C1075    C      0.862120000000     0.641500000000     0.373160000000    -0.0371333  
C1076    C      0.874700000000     0.655320000000     0.353060000000     0.00042808 
C1077    C      0.903170000000     0.653090000000     0.350080000000    -0.0371166  
C1078    C      0.918670000000     0.637430000000     0.366810000000    -0.0372116  
C1079    C      0.858210000000     0.671780000000     0.335120000000     0.0292205  
C1080    C      0.832870000000     0.662180000000     0.326360000000    -0.0672916  
C1081    C      0.817710000000     0.677290000000     0.308950000000     0.021466   
C1082    C      0.827540000000     0.702390000000     0.299880000000    -0.0980094  
C1083    C      0.852690000000     0.712210000000     0.308950000000     0.0214059  
C1084    C      0.867840000000     0.697070000000     0.326340000000    -0.0673058  
C1085    C      0.703320000000     0.826390000000     0.299910000000    -0.0981539  
C1086    C      0.678110000000     0.816690000000     0.308920000000     0.0215477  
C1087    C      0.663000000000     0.831860000000     0.326330000000    -0.067398   
C1088    C      0.672730000000     0.857080000000     0.335150000000     0.0292983  
C1089    C      0.698140000000     0.866580000000     0.326440000000    -0.0673789  
C1090    C      0.713270000000     0.851420000000     0.309050000000     0.0215196  
C1091    C      0.656280000000     0.873600000000     0.353090000000     0.000459221
C1092    C      0.642340000000     0.861070000000     0.373150000000    -0.0371427  
C1093    C      0.626710000000     0.876600000000     0.389880000000    -0.037188   
C1094    C      0.624650000000     0.905020000000     0.386940000000     0.000536334
C1095    C      0.638590000000     0.917550000000     0.366880000000    -0.0372065  
C1096    C      0.654210000000     0.902020000000     0.350150000000    -0.0370523  
C1097    C      0.608180000000     0.921540000000     0.404870000000     0.0292893  
C1098    C      0.582760000000     0.912040000000     0.413560000000    -0.067383   
C1099    C      0.567610000000     0.927210000000     0.430930000000     0.0215925  
C1100    C      0.577530000000     0.952250000000     0.440050000000    -0.0981509  
C1101    C      0.602760000000     0.961950000000     0.431070000000     0.0215674  
C1102    C      0.617890000000     0.946770000000     0.413680000000    -0.0673822  
C1103    C      0.949960000000     0.949090000000     0.045230000000    -0.100074   
C1104    C      0.924830000000     0.958930000000     0.054330000000     0.0231413  
C1105    C      0.910120000000     0.944220000000     0.072330000000    -0.067837   
C1106    C      0.920150000000     0.919330000000     0.081660000000     0.0299372  
C1107    C      0.945150000000     0.909370000000     0.072400000000    -0.0679324  
C1108    C      0.959890000000     0.924080000000     0.054420000000     0.0231539  
C1109    C      0.904740000000     0.903940000000     0.101130000000     0.000435146
C1110    C      0.892270000000     0.917660000000     0.121350000000    -0.0370372  
C1111    C      0.877900000000     0.903190000000     0.139750000000    -0.0370267  
C1112    C      0.875670000000     0.874650000000     0.138350000000     0.000315282
C1113    C      0.888130000000     0.860930000000     0.118130000000    -0.0370234  
C1114    C      0.902510000000     0.875410000000     0.099720000000    -0.0371286  
C1115    C      0.860290000000     0.859250000000     0.157850000000     0.0301313  
C1116    C      0.835320000000     0.869210000000     0.167140000000    -0.0681243  
C1117    C      0.820630000000     0.854530000000     0.185180000000     0.0232358  
C1118    C      0.830600000000     0.829530000000     0.194380000000    -0.100595   
C1119    C      0.855700000000     0.819700000000     0.185230000000     0.0234483  
C1120    C      0.870370000000     0.834380000000     0.167170000000    -0.0682125  
Co49     Co     0.974890000000     0.514350000000     0.494910000000     0.833375   
Co50     Co     0.555860000000     0.514360000000     0.494940000000     0.832741   
Co51     Co     0.515380000000     0.973960000000     0.494950000000     0.834187   
Co52     Co     0.515370000000     0.554740000000     0.494950000000     0.83355    
Co53     Co     0.765380000000     0.804730000000     0.244910000000     0.833708   
Co54     Co     0.765380000000     0.723970000000     0.244940000000     0.833705   
Co55     Co     0.805870000000     0.764350000000     0.244860000000     0.832919   
Co56     Co     0.724880000000     0.764360000000     0.244910000000     0.832731   
H577     H      0.551450000000     0.612740000000     0.048010000000     0.040436   
H578     H      0.577020000000     0.638220000000     0.079560000000     0.0472156  
H579     H      0.639890000000     0.576390000000     0.078980000000     0.0473236  
H580     H      0.614140000000     0.550590000000     0.047770000000     0.0405357  
H581     H      0.619070000000     0.664400000000     0.084370000000     0.0389766  
H582     H      0.644170000000     0.689660000000     0.116470000000     0.0389447  
H583     H      0.661740000000     0.614330000000     0.155440000000     0.0389618  
H584     H      0.636630000000     0.589060000000     0.123350000000     0.0388985  
H585     H      0.640910000000     0.702320000000     0.160830000000     0.047364   
H586     H      0.666630000000     0.728120000000     0.192060000000     0.0403848  
H587     H      0.729330000000     0.665980000000     0.191840000000     0.0403205  
H588     H      0.703780000000     0.640500000000     0.160280000000     0.0472228  
H589     H      0.548100000000     0.609490000000     0.437240000000     0.040718   
H590     H      0.574370000000     0.635760000000     0.406740000000     0.0468104  
H591     H      0.637430000000     0.574130000000     0.407470000000     0.0468498  
H592     H      0.611000000000     0.547550000000     0.437620000000     0.0407817  
H593     H      0.616450000000     0.662300000000     0.405270000000     0.0389087  
H594     H      0.643670000000     0.689400000000     0.376050000000     0.0384564  
H595     H      0.664230000000     0.616430000000     0.334570000000     0.0389194  
H596     H      0.637010000000     0.589330000000     0.363780000000     0.0384546  
H597     H      0.643260000000     0.704600000000     0.332350000000     0.0468797  
H598     H      0.669710000000     0.731180000000     0.302220000000     0.040785   
H599     H      0.732590000000     0.669240000000     0.302620000000     0.0407213  
H600     H      0.706320000000     0.642970000000     0.333110000000     0.0467937  
H601     H      0.729140000000     0.862980000000     0.192200000000     0.0404197  
H602     H      0.703360000000     0.888760000000     0.161010000000     0.0473288  
H603     H      0.641310000000     0.826120000000     0.160310000000     0.0472796  
H604     H      0.666780000000     0.800510000000     0.191840000000     0.0403838  
H605     H      0.615160000000     0.868150000000     0.155520000000     0.0390134  
H606     H      0.589930000000     0.893320000000     0.123440000000     0.0389412  
H607     H      0.665500000000     0.910760000000     0.084560000000     0.0390777  
H608     H      0.690730000000     0.885600000000     0.116640000000     0.0389649  
H609     H      0.639340000000     0.952780000000     0.079740000000     0.0472941  
H610     H      0.613890000000     0.978330000000     0.048150000000     0.0405668  
H611     H      0.551550000000     0.915840000000     0.047810000000     0.0405154  
H612     H      0.577310000000     0.890110000000     0.079060000000     0.0473042  
H613     H      0.916830000000     0.550330000000     0.048110000000     0.0404451  
H614     H      0.891370000000     0.575870000000     0.079700000000     0.0472447  
H615     H      0.953360000000     0.638570000000     0.079030000000     0.047399   
H616     H      0.979140000000     0.612860000000     0.047780000000     0.0406109  
H617     H      0.865180000000     0.617870000000     0.084540000000     0.0390053  
H618     H      0.839960000000     0.643030000000     0.116630000000     0.0389731  
H619     H      0.915520000000     0.660510000000     0.155490000000     0.0389728  
H620     H      0.940750000000     0.635340000000     0.123410000000     0.0389603  
H621     H      0.827320000000     0.639890000000     0.161010000000     0.0473014  
H622     H      0.801560000000     0.665690000000     0.192200000000     0.0404011  
H623     H      0.863920000000     0.728160000000     0.191790000000     0.0403514  
H624     H      0.889370000000     0.702540000000     0.160250000000     0.0472713  
H625     H      0.919820000000     0.981180000000     0.437510000000     0.0408974  
H626     H      0.893430000000     0.954600000000     0.407340000000     0.0471268  
H627     H      0.956500000000     0.892990000000     0.406630000000     0.0470909  
H628     H      0.982720000000     0.919250000000     0.437170000000     0.0408669  
H629     H      0.893880000000     0.939420000000     0.363640000000     0.0387423  
H630     H      0.866670000000     0.912320000000     0.334420000000     0.039143   
H631     H      0.887230000000     0.839350000000     0.375890000000     0.0387435  
H632     H      0.914430000000     0.866440000000     0.405120000000     0.039074   
H633     H      0.824570000000     0.885800000000     0.332980000000     0.0469999  
H634     H      0.798260000000     0.859520000000     0.302510000000     0.0407783  
H635     H      0.861130000000     0.797570000000     0.302080000000     0.0408416  
H636     H      0.887610000000     0.824150000000     0.332190000000     0.0470846  
H637     H      0.919930000000     0.547320000000     0.437370000000     0.0407733  
H638     H      0.893680000000     0.573650000000     0.406870000000     0.046847   
H639     H      0.955800000000     0.636230000000     0.407430000000     0.0470013  
H640     H      0.982350000000     0.609740000000     0.437560000000     0.0408967  
H641     H      0.867340000000     0.615820000000     0.405400000000     0.0390695  
H642     H      0.840290000000     0.643100000000     0.376190000000     0.0386117  
H643     H      0.913450000000     0.663110000000     0.334560000000     0.0390767  
H644     H      0.940490000000     0.635830000000     0.363770000000     0.0387     
H645     H      0.824990000000     0.642650000000     0.332540000000     0.0469248  
H646     H      0.798430000000     0.669090000000     0.302380000000     0.0408258  
H647     H      0.860830000000     0.731520000000     0.302490000000     0.0407938  
H648     H      0.887090000000     0.705250000000     0.333020000000     0.0468232  
H649     H      0.669800000000     0.797510000000     0.302290000000     0.0407755  
H650     H      0.643380000000     0.824080000000     0.332460000000     0.0469049  
H651     H      0.706420000000     0.885730000000     0.333160000000     0.0469458  
H652     H      0.732670000000     0.859460000000     0.302640000000     0.0408086  
H653     H      0.643820000000     0.839280000000     0.376160000000     0.0384922  
H654     H      0.616600000000     0.866370000000     0.405370000000     0.0390215  
H655     H      0.637100000000     0.939340000000     0.363880000000     0.0385673  
H656     H      0.664330000000     0.912250000000     0.334650000000     0.0390051  
H657     H      0.574490000000     0.892880000000     0.406850000000     0.0469224  
H658     H      0.548200000000     0.919160000000     0.437320000000     0.0407736  
H659     H      0.611060000000     0.981140000000     0.437680000000     0.0408669  
H660     H      0.637510000000     0.954550000000     0.407560000000     0.0469668  
H661     H      0.916530000000     0.978080000000     0.047650000000     0.0406116  
H662     H      0.890750000000     0.952270000000     0.078830000000     0.0474006  
H663     H      0.953600000000     0.890430000000     0.079420000000     0.047312   
H664     H      0.979210000000     0.915920000000     0.047910000000     0.0405344  
H665     H      0.893990000000     0.939590000000     0.123200000000     0.0390087  
H666     H      0.868880000000     0.914330000000     0.155290000000     0.0389938  
H667     H      0.886420000000     0.839010000000     0.116280000000     0.0390024  
H668     H      0.911530000000     0.864270000000     0.084190000000     0.0390791  
H669     H      0.826840000000     0.888140000000     0.160120000000     0.0472745  
H670     H      0.801330000000     0.862680000000     0.191720000000     0.0403405  
H671     H      0.864040000000     0.800550000000     0.191910000000     0.0403792  
H672     H      0.889720000000     0.826340000000     0.160650000000     0.0474663  
O205     O      0.956710000000     0.987970000000     0.019060000000    -0.352345   
O206     O      0.574010000000     0.540720000000     0.019130000000    -0.352396   
O207     O      0.541730000000     0.955880000000     0.019200000000    -0.352559   
O208     O      0.988990000000     0.572820000000     0.019180000000    -0.352181   
O209     O      0.573980000000     0.988020000000     0.019190000000    -0.351948   
O210     O      0.956760000000     0.540670000000     0.019150000000    -0.35241    
O211     O      0.541760000000     0.572850000000     0.019150000000    -0.352552   
O212     O      0.988950000000     0.955840000000     0.019110000000    -0.35234    
O213     O      0.958870000000     0.538610000000     0.467710000000    -0.356542   
O214     O      0.571900000000     0.990080000000     0.467750000000    -0.35626    
O215     O      0.991180000000     0.957990000000     0.467680000000    -0.356412   
O216     O      0.539610000000     0.570730000000     0.467710000000    -0.356843   
O217     O      0.571860000000     0.538610000000     0.467720000000    -0.356798   
O218     O      0.958930000000     0.990110000000     0.467660000000    -0.356205   
O219     O      0.991100000000     0.570760000000     0.467740000000    -0.356225   
O220     O      0.539650000000     0.957950000000     0.467750000000    -0.356658   
O221     O      0.515380000000     0.514360000000     0.005280000000    -0.584438   
O222     O      0.791720000000     0.822820000000     0.220640000000    -0.353188   
O223     O      0.738990000000     0.705870000000     0.220710000000    -0.353101   
O224     O      0.823980000000     0.737950000000     0.220680000000    -0.353003   
O225     O      0.706740000000     0.790750000000     0.220730000000    -0.352998   
O226     O      0.791750000000     0.705810000000     0.220750000000    -0.35311    
O227     O      0.738990000000     0.822880000000     0.220740000000    -0.353135   
O228     O      0.706760000000     0.738000000000     0.220700000000    -0.353175   
O229     O      0.823950000000     0.790690000000     0.220600000000    -0.353194   
O230     O      0.741170000000     0.820700000000     0.272170000000    -0.356847   
O231     O      0.789640000000     0.708030000000     0.272170000000    -0.356656   
O232     O      0.821950000000     0.788620000000     0.272030000000    -0.356373   
O233     O      0.708850000000     0.740110000000     0.272120000000    -0.356319   
O234     O      0.741130000000     0.708000000000     0.272160000000    -0.356671   
O235     O      0.789680000000     0.820730000000     0.272090000000    -0.356687   
O236     O      0.708890000000     0.788600000000     0.272150000000    -0.356513   
O237     O      0.821900000000     0.740160000000     0.272090000000    -0.356405   
O238     O      0.765370000000     0.764350000000     0.234560000000    -0.58567    
C1121    C      0.965990000000     0.965090000000     0.526710000000     0.350892   
C1122    C      0.564710000000     0.563600000000     0.526790000000     0.350616   
C1123    C      0.564670000000     0.965140000000     0.526850000000     0.350482   
C1124    C      0.966050000000     0.563550000000     0.526820000000     0.350633   
C1125    C      0.968690000000     0.560980000000     0.959340000000     0.343852   
C1126    C      0.562070000000     0.967720000000     0.959370000000     0.343926   
C1127    C      0.968780000000     0.967760000000     0.959270000000     0.344078   
C1128    C      0.562020000000     0.560950000000     0.959330000000     0.344158   
C1129    C      0.814640000000     0.813560000000     0.712960000000     0.351191   
C1130    C      0.716050000000     0.715120000000     0.713060000000     0.351091   
C1131    C      0.814680000000     0.715050000000     0.713080000000     0.350919   
C1132    C      0.716040000000     0.813640000000     0.713110000000     0.350813   
C1133    C      0.718750000000     0.810940000000     0.780550000000     0.344075   
C1134    C      0.812070000000     0.717810000000     0.780530000000     0.34363    
C1135    C      0.812120000000     0.810970000000     0.780440000000     0.344005   
C1136    C      0.718690000000     0.717760000000     0.780530000000     0.343756   
C1137    C      0.580710000000     0.579590000000     0.545330000000    -0.100312   
C1138    C      0.570770000000     0.604590000000     0.554530000000     0.0231401  
C1139    C      0.585480000000     0.619280000000     0.572540000000    -0.0680565  
C1140    C      0.610470000000     0.609320000000     0.581810000000     0.0299402  
C1141    C      0.620520000000     0.584440000000     0.572480000000    -0.0679597  
C1142    C      0.605830000000     0.569740000000     0.554450000000     0.0230999  
C1143    C      0.625870000000     0.624710000000     0.601300000000     0.000277901
C1144    C      0.628100000000     0.653250000000     0.599910000000    -0.037027   
C1145    C      0.642470000000     0.667730000000     0.618310000000    -0.0371175  
C1146    C      0.654940000000     0.654000000000     0.638530000000     0.000350963
C1147    C      0.652710000000     0.625460000000     0.639920000000    -0.0372208  
C1148    C      0.638340000000     0.610990000000     0.621510000000    -0.037008   
C1149    C      0.670330000000     0.669400000000     0.658020000000     0.0299871  
C1150    C      0.660270000000     0.694280000000     0.667340000000    -0.0681201  
C1151    C      0.674950000000     0.708970000000     0.685380000000     0.0233145  
C1152    C      0.700070000000     0.699140000000     0.694510000000    -0.1006     
C1153    C      0.710020000000     0.674130000000     0.685320000000     0.0231955  
C1154    C      0.695320000000     0.659440000000     0.667290000000    -0.0680882  
C1155    C      0.577470000000     0.576420000000     0.939980000000    -0.0981146  
C1156    C      0.567520000000     0.601450000000     0.930850000000     0.0214344  
C1157    C      0.582650000000     0.616620000000     0.913460000000    -0.0675407  
C1158    C      0.608060000000     0.607130000000     0.904770000000     0.0292071  
C1159    C      0.617800000000     0.581900000000     0.913590000000    -0.0673714  
C1160    C      0.602690000000     0.566720000000     0.930990000000     0.0214069  
C1161    C      0.624520000000     0.623650000000     0.886840000000     0.000410655
C1162    C      0.626570000000     0.652070000000     0.889770000000    -0.0371742  
C1163    C      0.642200000000     0.667610000000     0.873050000000    -0.0372907  
C1164    C      0.656150000000     0.655080000000     0.852990000000     0.000403826
C1165    C      0.654100000000     0.626660000000     0.850060000000    -0.0371836  
C1166    C      0.638470000000     0.611120000000     0.866790000000    -0.0372756  
C1167    C      0.672620000000     0.671600000000     0.835070000000     0.0292658  
C1168    C      0.662880000000     0.696820000000     0.826240000000    -0.0674193  
C1169    C      0.678010000000     0.712000000000     0.808840000000     0.0214368  
C1170    C      0.703250000000     0.702300000000     0.799860000000    -0.0981817  
C1171    C      0.713180000000     0.677280000000     0.809010000000     0.0214912  
C1172    C      0.698030000000     0.662110000000     0.826390000000    -0.0675259  
C1173    C      0.700050000000     0.829660000000     0.694580000000    -0.100333   
C1174    C      0.709950000000     0.854720000000     0.685500000000     0.0231911  
C1175    C      0.695260000000     0.869440000000     0.667480000000    -0.0680534  
C1176    C      0.670320000000     0.859460000000     0.658120000000     0.0299757  
C1177    C      0.660290000000     0.834520000000     0.667350000000    -0.0680384  
C1178    C      0.674990000000     0.819780000000     0.685360000000     0.0231192  
C1179    C      0.654950000000     0.874880000000     0.638640000000     0.000305359
C1180    C      0.626360000000     0.877160000000     0.640010000000    -0.0371211  
C1181    C      0.611910000000     0.891580000000     0.621620000000    -0.0370189  
C1182    C      0.625710000000     0.904020000000     0.601430000000     0.000324649
C1183    C      0.654300000000     0.901740000000     0.600070000000    -0.0370834  
C1184    C      0.668750000000     0.887340000000     0.618450000000    -0.0370126  
C1185    C      0.610330000000     0.919430000000     0.581940000000     0.0299352  
C1186    C      0.620360000000     0.944360000000     0.572690000000    -0.0679329  
C1187    C      0.605680000000     0.959070000000     0.554660000000     0.0231211  
C1188    C      0.580640000000     0.949170000000     0.545420000000    -0.100246   
C1189    C      0.570730000000     0.924110000000     0.554530000000     0.0230969  
C1190    C      0.585410000000     0.909430000000     0.572570000000    -0.0679673  
C1191    C      0.950070000000     0.579520000000     0.545390000000    -0.100268   
C1192    C      0.925020000000     0.569600000000     0.554620000000     0.023063   
C1193    C      0.910340000000     0.584300000000     0.572660000000    -0.0680198  
C1194    C      0.920350000000     0.609230000000     0.581910000000     0.0299815  
C1195    C      0.945270000000     0.619250000000     0.572540000000    -0.0679859  
C1196    C      0.959960000000     0.604570000000     0.554490000000     0.0232124  
C1197    C      0.904970000000     0.624620000000     0.601410000000     0.000306002
C1198    C      0.876380000000     0.626890000000     0.600050000000    -0.0370601  
C1199    C      0.861930000000     0.641300000000     0.618440000000    -0.0370945  
C1200    C      0.875730000000     0.653760000000     0.638620000000     0.000360496
C1201    C      0.904320000000     0.651480000000     0.639990000000    -0.0371285  
C1202    C      0.918770000000     0.637080000000     0.621590000000    -0.0369898  
C1203    C      0.860360000000     0.669190000000     0.658100000000     0.0299673  
C1204    C      0.835430000000     0.659220000000     0.667460000000    -0.0679908  
C1205    C      0.820750000000     0.673950000000     0.685490000000     0.0231741  
C1206    C      0.830660000000     0.699020000000     0.694550000000    -0.100385   
C1207    C      0.855720000000     0.708880000000     0.685310000000     0.023169   
C1208    C      0.870390000000     0.694140000000     0.667310000000    -0.0680441  
C1209    C      0.953360000000     0.952310000000     0.939910000000    -0.0981957  
C1210    C      0.928140000000     0.962000000000     0.930890000000     0.0216826  
C1211    C      0.913050000000     0.946830000000     0.913470000000    -0.0673962  
C1212    C      0.922800000000     0.921610000000     0.904650000000     0.0294248  
C1213    C      0.948210000000     0.912120000000     0.913360000000    -0.0674924  
C1214    C      0.963320000000     0.927290000000     0.930760000000     0.0216313  
C1215    C      0.906360000000     0.905100000000     0.886700000000     0.000441046
C1216    C      0.892410000000     0.917620000000     0.866640000000    -0.0370465  
C1217    C      0.876790000000     0.902090000000     0.849910000000    -0.0371065  
C1218    C      0.874730000000     0.873670000000     0.852840000000     0.000564054
C1219    C      0.888690000000     0.861140000000     0.872890000000    -0.0372063  
C1220    C      0.904310000000     0.876670000000     0.889620000000    -0.0369906  
C1221    C      0.858260000000     0.857150000000     0.834910000000     0.0293476  
C1222    C      0.832840000000     0.866650000000     0.826250000000    -0.0674324  
C1223    C      0.817680000000     0.851470000000     0.808890000000     0.0216417  
C1224    C      0.827600000000     0.826440000000     0.799740000000    -0.0982045  
C1225    C      0.852840000000     0.816740000000     0.808710000000     0.0215954  
C1226    C      0.867980000000     0.831920000000     0.826080000000    -0.0673281  
C1227    C      0.953230000000     0.576440000000     0.940020000000    -0.0981659  
C1228    C      0.928080000000     0.566640000000     0.930930000000     0.0214874  
C1229    C      0.912930000000     0.581810000000     0.913560000000    -0.0674022  
C1230    C      0.922560000000     0.607110000000     0.904820000000     0.0292314  
C1231    C      0.947910000000     0.616700000000     0.913590000000    -0.0673266  
C1232    C      0.963070000000     0.601550000000     0.930980000000     0.0215234  
C1233    C      0.906080000000     0.623600000000     0.886900000000     0.00045822 
C1234    C      0.877610000000     0.625840000000     0.889880000000    -0.0372033  
C1235    C      0.862120000000     0.641500000000     0.873160000000    -0.0371516  
C1236    C      0.874700000000     0.655320000000     0.853060000000     0.000422027
C1237    C      0.903170000000     0.653090000000     0.850080000000    -0.0371217  
C1238    C      0.918670000000     0.637430000000     0.866810000000    -0.0372177  
C1239    C      0.858210000000     0.671780000000     0.835120000000     0.0292119  
C1240    C      0.832870000000     0.662180000000     0.826360000000    -0.0672924  
C1241    C      0.817710000000     0.677290000000     0.808950000000     0.0214603  
C1242    C      0.827540000000     0.702390000000     0.799880000000    -0.0980098  
C1243    C      0.852690000000     0.712210000000     0.808950000000     0.0214004  
C1244    C      0.867840000000     0.697070000000     0.826340000000    -0.0673087  
C1245    C      0.703320000000     0.826390000000     0.799910000000    -0.0981403  
C1246    C      0.678110000000     0.816690000000     0.808920000000     0.0215293  
C1247    C      0.663000000000     0.831860000000     0.826330000000    -0.0673841  
C1248    C      0.672730000000     0.857080000000     0.835150000000     0.0292642  
C1249    C      0.698140000000     0.866580000000     0.826440000000    -0.0673468  
C1250    C      0.713270000000     0.851420000000     0.809050000000     0.0214982  
C1251    C      0.656280000000     0.873600000000     0.853090000000     0.000485936
C1252    C      0.642340000000     0.861070000000     0.873140000000    -0.0371904  
C1253    C      0.626710000000     0.876600000000     0.889880000000    -0.0371606  
C1254    C      0.624650000000     0.905020000000     0.886940000000     0.000496987
C1255    C      0.638590000000     0.917550000000     0.866880000000    -0.037194   
C1256    C      0.654210000000     0.902020000000     0.850150000000    -0.0370786  
C1257    C      0.608180000000     0.921540000000     0.904870000000     0.0292778  
C1258    C      0.582760000000     0.912040000000     0.913560000000    -0.0674073  
C1259    C      0.567610000000     0.927210000000     0.930930000000     0.0215562  
C1260    C      0.577530000000     0.952250000000     0.940050000000    -0.0981692  
C1261    C      0.602760000000     0.961950000000     0.931070000000     0.0215311  
C1262    C      0.617890000000     0.946770000000     0.913680000000    -0.0674094  
C1263    C      0.949960000000     0.949090000000     0.545230000000    -0.100214   
C1264    C      0.924830000000     0.958930000000     0.554320000000     0.0231399  
C1265    C      0.910120000000     0.944220000000     0.572330000000    -0.0678879  
C1266    C      0.920150000000     0.919330000000     0.581660000000     0.0299579  
C1267    C      0.945150000000     0.909370000000     0.572410000000    -0.067995   
C1268    C      0.959890000000     0.924080000000     0.554410000000     0.0231379  
C1269    C      0.904740000000     0.903940000000     0.601130000000     0.000370069
C1270    C      0.892270000000     0.917660000000     0.621350000000    -0.0370225  
C1271    C      0.877900000000     0.903190000000     0.639750000000    -0.0370415  
C1272    C      0.875670000000     0.874650000000     0.638350000000     0.000320621
C1273    C      0.888130000000     0.860930000000     0.618130000000    -0.037069   
C1274    C      0.902510000000     0.875410000000     0.599730000000    -0.0370693  
C1275    C      0.860290000000     0.859250000000     0.657850000000     0.0301332  
C1276    C      0.835320000000     0.869210000000     0.667140000000    -0.0681538  
C1277    C      0.820630000000     0.854530000000     0.685180000000     0.0232427  
C1278    C      0.830600000000     0.829530000000     0.694380000000    -0.100597   
C1279    C      0.855700000000     0.819700000000     0.685230000000     0.0234484  
C1280    C      0.870370000000     0.834380000000     0.667170000000    -0.0682165  
Co57     Co     0.974890000000     0.514350000000     0.994910000000     0.832141   
Co58     Co     0.555860000000     0.514360000000     0.994940000000     0.831435   
Co59     Co     0.515380000000     0.973960000000     0.994950000000     0.832884   
Co60     Co     0.515370000000     0.554740000000     0.994950000000     0.832309   
Co61     Co     0.765380000000     0.804730000000     0.744910000000     0.833714   
Co62     Co     0.765380000000     0.723970000000     0.744940000000     0.833713   
Co63     Co     0.805870000000     0.764350000000     0.744860000000     0.832928   
Co64     Co     0.724880000000     0.764360000000     0.744910000000     0.832737   
H673     H      0.551450000000     0.612740000000     0.548010000000     0.040345   
H674     H      0.577020000000     0.638220000000     0.579560000000     0.0471956  
H675     H      0.639890000000     0.576390000000     0.578980000000     0.047294   
H676     H      0.614140000000     0.550590000000     0.547770000000     0.0404381  
H677     H      0.619070000000     0.664400000000     0.584370000000     0.0388755  
H678     H      0.644170000000     0.689660000000     0.616470000000     0.0389157  
H679     H      0.661740000000     0.614330000000     0.655440000000     0.0389696  
H680     H      0.636630000000     0.589060000000     0.623350000000     0.0388903  
H681     H      0.640910000000     0.702320000000     0.660830000000     0.0473615  
H682     H      0.666630000000     0.728120000000     0.692060000000     0.0403842  
H683     H      0.729330000000     0.665980000000     0.691840000000     0.040323   
H684     H      0.703780000000     0.640500000000     0.660270000000     0.0472002  
H685     H      0.548100000000     0.609490000000     0.937240000000     0.0406735  
H686     H      0.574370000000     0.635760000000     0.906740000000     0.0467718  
H687     H      0.637430000000     0.574130000000     0.907470000000     0.0468039  
H688     H      0.611000000000     0.547550000000     0.937620000000     0.040731   
H689     H      0.616450000000     0.662300000000     0.905270000000     0.038845   
H690     H      0.643670000000     0.689400000000     0.876050000000     0.0384193  
H691     H      0.664230000000     0.616430000000     0.834570000000     0.0389224  
H692     H      0.637010000000     0.589330000000     0.863780000000     0.0384564  
H693     H      0.643260000000     0.704600000000     0.832350000000     0.0468733  
H694     H      0.669710000000     0.731180000000     0.802220000000     0.0407853  
H695     H      0.732590000000     0.669240000000     0.802620000000     0.0407202  
H696     H      0.706320000000     0.642970000000     0.833110000000     0.04678    
H697     H      0.729140000000     0.862980000000     0.692210000000     0.040418   
H698     H      0.703360000000     0.888760000000     0.661010000000     0.0473273  
H699     H      0.641310000000     0.826120000000     0.660310000000     0.0472685  
H700     H      0.666780000000     0.800510000000     0.691840000000     0.0403809  
H701     H      0.615160000000     0.868150000000     0.655520000000     0.039016   
H702     H      0.589930000000     0.893320000000     0.623440000000     0.0389394  
H703     H      0.665500000000     0.910760000000     0.584560000000     0.0390078  
H704     H      0.690730000000     0.885600000000     0.616640000000     0.0389288  
H705     H      0.639340000000     0.952780000000     0.579740000000     0.0472691  
H706     H      0.613890000000     0.978330000000     0.548140000000     0.0404863  
H707     H      0.551550000000     0.915840000000     0.547810000000     0.0404288  
H708     H      0.577310000000     0.890110000000     0.579060000000     0.0472693  
H709     H      0.916830000000     0.550330000000     0.548110000000     0.0403671  
H710     H      0.891370000000     0.575870000000     0.579700000000     0.0472345  
H711     H      0.953360000000     0.638570000000     0.579030000000     0.0473654  
H712     H      0.979140000000     0.612860000000     0.547780000000     0.0405236  
H713     H      0.865180000000     0.617870000000     0.584540000000     0.0389364  
H714     H      0.839960000000     0.643030000000     0.616620000000     0.0389378  
H715     H      0.915520000000     0.660510000000     0.655490000000     0.0390071  
H716     H      0.940750000000     0.635340000000     0.623410000000     0.0389556  
H717     H      0.827320000000     0.639890000000     0.661000000000     0.0472909  
H718     H      0.801560000000     0.665690000000     0.692200000000     0.0404177  
H719     H      0.863920000000     0.728160000000     0.691790000000     0.0403611  
H720     H      0.889370000000     0.702540000000     0.660250000000     0.0472552  
H721     H      0.919820000000     0.981180000000     0.937520000000     0.0408484  
H722     H      0.893430000000     0.954600000000     0.907340000000     0.0470858  
H723     H      0.956500000000     0.892990000000     0.906630000000     0.0470484  
H724     H      0.982720000000     0.919250000000     0.937170000000     0.0408122  
H725     H      0.893880000000     0.939420000000     0.863650000000     0.0387487  
H726     H      0.866670000000     0.912320000000     0.834420000000     0.039147   
H727     H      0.887230000000     0.839350000000     0.875890000000     0.0387053  
H728     H      0.914430000000     0.866440000000     0.905120000000     0.039011   
H729     H      0.824570000000     0.885800000000     0.832980000000     0.046983   
H730     H      0.798260000000     0.859520000000     0.802510000000     0.0407777  
H731     H      0.861130000000     0.797570000000     0.802080000000     0.0408391  
H732     H      0.887610000000     0.824150000000     0.832190000000     0.0470632  
H733     H      0.919930000000     0.547320000000     0.937370000000     0.0407223  
H734     H      0.893680000000     0.573650000000     0.906870000000     0.0468108  
H735     H      0.955800000000     0.636230000000     0.907430000000     0.0469564  
H736     H      0.982350000000     0.609740000000     0.937560000000     0.0408433  
H737     H      0.867340000000     0.615820000000     0.905400000000     0.0390063  
H738     H      0.840290000000     0.643100000000     0.876190000000     0.0385739  
H739     H      0.913450000000     0.663110000000     0.834560000000     0.0390798  
H740     H      0.940490000000     0.635830000000     0.863770000000     0.0387021  
H741     H      0.824990000000     0.642650000000     0.832540000000     0.0469175  
H742     H      0.798430000000     0.669090000000     0.802380000000     0.0408247  
H743     H      0.860830000000     0.731520000000     0.802490000000     0.0407924  
H744     H      0.887090000000     0.705250000000     0.833020000000     0.0468098  
H745     H      0.669800000000     0.797510000000     0.802300000000     0.0407729  
H746     H      0.643380000000     0.824080000000     0.832460000000     0.0468954  
H747     H      0.706420000000     0.885730000000     0.833170000000     0.0469144  
H748     H      0.732670000000     0.859460000000     0.802640000000     0.0408126  
H749     H      0.643820000000     0.839280000000     0.876160000000     0.0384616  
H750     H      0.616600000000     0.866370000000     0.905380000000     0.0389326  
H751     H      0.637100000000     0.939340000000     0.863880000000     0.0385641  
H752     H      0.664330000000     0.912250000000     0.834650000000     0.0390139  
H753     H      0.574490000000     0.892880000000     0.906850000000     0.0468951  
H754     H      0.548200000000     0.919160000000     0.937320000000     0.0407197  
H755     H      0.611060000000     0.981140000000     0.937680000000     0.0408086  
H756     H      0.637510000000     0.954550000000     0.907560000000     0.046928   
H757     H      0.916530000000     0.978080000000     0.547650000000     0.0405312  
H758     H      0.890750000000     0.952270000000     0.578830000000     0.047362   
H759     H      0.953600000000     0.890430000000     0.579420000000     0.0472971  
H760     H      0.979210000000     0.915920000000     0.547910000000     0.0404574  
H761     H      0.893990000000     0.939590000000     0.623190000000     0.0390056  
H762     H      0.868880000000     0.914330000000     0.655290000000     0.0390004  
H763     H      0.886420000000     0.839010000000     0.616280000000     0.0389724  
H764     H      0.911530000000     0.864270000000     0.584190000000     0.0389781  
H765     H      0.826840000000     0.888140000000     0.660130000000     0.0472772  
H766     H      0.801330000000     0.862680000000     0.691720000000     0.040336   
H767     H      0.864040000000     0.800550000000     0.691910000000     0.0403791  
H768     H      0.889720000000     0.826340000000     0.660650000000     0.0474613  
O239     O      0.956710000000     0.987970000000     0.519060000000    -0.352868   
O240     O      0.574010000000     0.540720000000     0.519130000000    -0.352886   
O241     O      0.541730000000     0.955880000000     0.519200000000    -0.353098   
O242     O      0.988990000000     0.572820000000     0.519180000000    -0.352736   
O243     O      0.573980000000     0.988020000000     0.519190000000    -0.352491   
O244     O      0.956760000000     0.540670000000     0.519160000000    -0.352939   
O245     O      0.541760000000     0.572850000000     0.519160000000    -0.35301    
O246     O      0.988950000000     0.955840000000     0.519110000000    -0.352871   
O247     O      0.958870000000     0.538610000000     0.967710000000    -0.356489   
O248     O      0.571900000000     0.990080000000     0.967750000000    -0.356218   
O249     O      0.991180000000     0.957990000000     0.967680000000    -0.356469   
O250     O      0.539610000000     0.570730000000     0.967710000000    -0.356781   
O251     O      0.571860000000     0.538610000000     0.967720000000    -0.35674    
O252     O      0.958930000000     0.990110000000     0.967660000000    -0.356269   
O253     O      0.991100000000     0.570760000000     0.967740000000    -0.356186   
O254     O      0.539650000000     0.957950000000     0.967750000000    -0.35661    
O255     O      0.515380000000     0.514360000000     0.505280000000    -0.585671   
O256     O      0.791720000000     0.822820000000     0.720640000000    -0.353186   
O257     O      0.738990000000     0.705870000000     0.720710000000    -0.353096   
O258     O      0.823980000000     0.737950000000     0.720680000000    -0.353074   
O259     O      0.706740000000     0.790750000000     0.720730000000    -0.353011   
O260     O      0.791750000000     0.705810000000     0.720750000000    -0.35318    
O261     O      0.738990000000     0.822880000000     0.720740000000    -0.353151   
O262     O      0.706760000000     0.738000000000     0.720700000000    -0.353172   
O263     O      0.823950000000     0.790690000000     0.720600000000    -0.353189   
O264     O      0.741170000000     0.820700000000     0.772170000000    -0.356844   
O265     O      0.789640000000     0.708030000000     0.772170000000    -0.356659   
O266     O      0.821950000000     0.788620000000     0.772030000000    -0.356372   
O267     O      0.708850000000     0.740110000000     0.772120000000    -0.356318   
O268     O      0.741130000000     0.708000000000     0.772160000000    -0.35667    
O269     O      0.789680000000     0.820730000000     0.772090000000    -0.356686   
O270     O      0.708890000000     0.788600000000     0.772150000000    -0.356508   
O271     O      0.821900000000     0.740160000000     0.772090000000    -0.356408   
O272     O      0.765370000000     0.764350000000     0.734560000000    -0.585674   


