data_structure

_audit_creation_method RASPA-1.0
_audit_creation_date 2023-6-4
_audit_author_name 'Poobodin Mano'

_cell_length_a    23.0451
_cell_length_b    23.4059
_cell_length_c    24.3219
_cell_angle_alpha 87.1363
_cell_angle_beta  93.8178
_cell_angle_gamma 120.435
_cell_volume      11284.2

_symmetry_cell_setting          triclinic
_symmetry_space_group_name_Hall 'P 1'
_symmetry_space_group_name_H-M  'P 1'
_symmetry_Int_Tables_number     1

_symmetry_equiv_pos_as_xyz 'x,y,z'

loop_
_atom_site_label
_atom_site_type_symbol
_atom_site_fract_x
_atom_site_fract_y
_atom_site_fract_z
_atom_site_charge
C1       C      0.051410000000     0.170700000000     0.008130000000     0.4476     
C2       C      0.913660000000     0.903130000000     0.013300000000     0.477174   
C3       C      0.076800000000     0.071410000000     0.907740000000     0.456865   
C4       C      0.941680000000     0.078110000000     0.125660000000     0.393027   
C5       C      0.064470000000     0.033440000000     0.190840000000     0.481598   
C6       C      0.200310000000     0.043280000000     0.982970000000     0.465262   
C7       C      0.186300000000     0.191350000000     0.098430000000     0.401763   
C8       C      0.049330000000     0.894800000000     0.066360000000     0.484609   
C9       C      0.023670000000     0.038840000000     0.397160000000     0.39151    
C10      C      0.076240000000     0.186890000000     0.633820000000     0.510743   
C11      C      0.938100000000     0.059180000000     0.523600000000     0.63977    
C12      C      0.187360000000     0.236930000000     0.523490000000     0.465192   
C13      C      0.239760000000     0.113340000000     0.539600000000     0.455036   
C14      C      0.941670000000     0.923300000000     0.572150000000     0.489204   
C15      C      0.108850000000     0.982350000000     0.482790000000     0.47525    
C16      C      0.094820000000     0.051870000000     0.703160000000     0.529549   
C17      C      0.901550000000     0.375090000000     0.009110000000     0.470423   
C18      C      0.061760000000     0.671940000000     0.016860000000     0.446202   
C19      C      0.879260000000     0.469880000000     0.084860000000     0.457041   
C20      C      0.091070000000     0.579370000000     0.928230000000     0.449677   
C21      C      0.173410000000     0.516280000000     0.026710000000     0.460953   
C22      C      0.018780000000     0.519920000000     0.193480000000     0.450026   
C23      C      0.053130000000     0.383530000000     0.058680000000     0.486215   
C24      C      0.139650000000     0.653280000000     0.138130000000     0.43589    
C25      C      0.938430000000     0.437710000000     0.518830000000     0.463279   
C26      C      0.107670000000     0.748150000000     0.512180000000     0.538897   
C27      C      0.951270000000     0.575570000000     0.602450000000     0.473324   
C28      C      0.083280000000     0.556320000000     0.418150000000     0.45402    
C29      C      0.212630000000     0.589790000000     0.537280000000     0.457122   
C30      C      0.091900000000     0.587240000000     0.701470000000     0.502437   
C31      C      0.075110000000     0.415450000000     0.570470000000     0.400549   
C32      C      0.227010000000     0.731130000000     0.592390000000     0.487044   
C33      C      0.416520000000     0.026830000000     0.991110000000     0.470772   
C34      C      0.558750000000     0.889030000000     0.011590000000     0.420035   
C35      C      0.575530000000     0.065960000000     0.913520000000     0.370096   
C36      C      0.386230000000     0.881480000000     0.120620000000     0.507463   
C37      C      0.525010000000     0.996290000000     0.203110000000     0.540189   
C38      C      0.702240000000     0.132690000000     0.004570000000     0.366732   
C39      C      0.543120000000     0.157540000000     0.073200000000     0.459897   
C40      C      0.675190000000     0.010860000000     0.117480000000     0.442522   
C41      C      0.455290000000     0.085760000000     0.505060000000     0.482647   
C42      C      0.620310000000     0.959700000000     0.490330000000     0.380015   
C43      C      0.562250000000     0.072110000000     0.420490000000     0.475325   
C44      C      0.444650000000     0.966650000000     0.618300000000     0.372313   
C45      C      0.601660000000     0.077420000000     0.687390000000     0.481686   
C46      C      0.724590000000     0.210030000000     0.469410000000     0.46781    
C47      C      0.565210000000     0.211970000000     0.596790000000     0.453474   
C48      C      0.735090000000     0.087820000000     0.576010000000     0.491743   
C49      C      0.420230000000     0.395030000000     0.002140000000     0.438832   
C50      C      0.552500000000     0.666330000000     0.955440000000     0.447999   
C51      C      0.430990000000     0.582980000000     0.068860000000     0.398985   
C52      C      0.582860000000     0.533350000000     0.893410000000     0.475005   
C53      C      0.707630000000     0.538290000000     0.003590000000     0.473082   
C54      C      0.561340000000     0.563350000000     0.160850000000     0.488272   
C55      C      0.551920000000     0.397580000000     0.082650000000     0.450575   
C56      C      0.674100000000     0.715640000000     0.054450000000     0.447561   
C57      C      0.430140000000     0.422130000000     0.500140000000     0.455634   
C58      C      0.591310000000     0.708860000000     0.480220000000     0.453539   
C59      C      0.454110000000     0.596110000000     0.578290000000     0.364791   
C60      C      0.612890000000     0.569260000000     0.384570000000     0.507751   
C61      C      0.705450000000     0.533590000000     0.500700000000     0.545063   
C62      C      0.532620000000     0.539150000000     0.668520000000     0.38147    
C63      C      0.560460000000     0.424760000000     0.586900000000     0.454572   
C64      C      0.694330000000     0.696680000000     0.584740000000     0.453021   
C65      C      0.626500000000     0.582870000000     0.802500000000    -0.00578499 
C66      C      0.524250000000     0.469950000000     0.810040000000    -0.0138227  
C67      C      0.592820000000     0.598450000000     0.752580000000    -0.0134402  
C68      C      0.489530000000     0.485270000000     0.760570000000     0.00989523 
C69      C      0.443970000000     0.421800000000     0.733050000000     0.0739026  
C70      C      0.561790000000     0.510430000000     0.298710000000    -0.00458414 
C71      C      0.623330000000     0.635880000000     0.299700000000    -0.0135675  
C72      C      0.588250000000     0.514460000000     0.242760000000    -0.0103025  
C73      C      0.639460000000     0.636970000000     0.238590000000     0.0119432  
C74      C      0.639470000000     0.694350000000     0.210450000000     0.0688418  
C75      C      0.648020000000     0.823410000000     0.438250000000    -0.0100511  
C76      C      0.541150000000     0.778940000000     0.491090000000    -0.0145988  
C77      C      0.668080000000     0.893580000000     0.458530000000    -0.01287    
C78      C      0.541630000000     0.841450000000     0.466810000000     0.00875173 
C79      C      0.515380000000     0.830670000000     0.409130000000     0.0546383  
C80      C      0.503210000000     0.253860000000     0.644750000000    -0.0102882  
C81      C      0.628350000000     0.326740000000     0.630240000000    -0.0134655  
C82      C      0.492770000000     0.309790000000     0.619800000000    -0.00882196 
C83      C      0.616660000000     0.381680000000     0.650550000000     0.0104762  
C84      C      0.611140000000     0.377800000000     0.710700000000     0.0588565  
C85      C      0.591370000000     0.128460000000     0.768310000000    -0.00561343 
C86      C      0.630880000000     0.044530000000     0.778840000000    -0.0153303  
C87      C      0.609010000000     0.135790000000     0.830100000000    -0.0146254  
C88      C      0.587280000000     0.017410000000     0.829680000000     0.0111196  
C89      C      0.517910000000     0.966760000000     0.813080000000     0.0699761  
C90      C      0.536270000000     0.985020000000     0.354290000000    -0.00498868 
C91      C      0.510140000000     0.074870000000     0.330740000000    -0.0147584  
C92      C      0.565160000000     0.992040000000     0.298250000000    -0.00856056 
C93      C      0.526010000000     0.074250000000     0.270430000000     0.0155878  
C94      C      0.472090000000     0.079180000000     0.237630000000     0.0628086  
C95      C      0.487390000000     0.787230000000     0.957560000000    -0.0121256  
C96      C      0.614840000000     0.844080000000     0.958340000000    -0.0160027  
C97      C      0.482120000000     0.718700000000     0.957360000000    -0.00800315 
C98      C      0.599810000000     0.784440000000     0.921970000000     0.0162485  
C99      C      0.582080000000     0.795020000000     0.864600000000     0.0513327  
C100     C      0.509060000000     0.283410000000     0.123970000000    -0.00871531 
C101     C      0.556730000000     0.313590000000     0.030590000000    -0.00501366 
C102     C      0.542430000000     0.240040000000     0.134030000000    -0.0143936  
C103     C      0.595680000000     0.277790000000     0.043660000000     0.00834901 
C104     C      0.613060000000     0.261900000000     0.991420000000     0.0623658  
C105     C      0.827090000000     0.342460000000     0.537360000000    -0.0102368  
C106     C      0.861300000000     0.369000000000     0.439790000000    -0.0150684  
C107     C      0.819650000000     0.274850000000     0.532330000000    -0.00160869 
C108     C      0.837300000000     0.293750000000     0.431920000000     0.00674424 
C109     C      0.805240000000     0.272230000000     0.376510000000     0.0470978  
C110     C      0.331210000000     0.886140000000     0.651910000000    -0.0137586  
C111     C      0.363840000000     0.878940000000     0.557180000000    -0.0156835  
C112     C      0.307570000000     0.811570000000     0.661420000000    -0.0104971  
C113     C      0.348370000000     0.808690000000     0.569770000000     0.0144097  
C114     C      0.337380000000     0.774490000000     0.517410000000     0.0526925  
C115     C      0.827610000000     0.493490000000     0.583400000000    -0.0139909  
C116     C      0.884540000000     0.611210000000     0.545360000000    -0.0173062  
C117     C      0.774300000000     0.480720000000     0.534660000000    -0.00586571 
C118     C      0.815190000000     0.602520000000     0.546060000000     0.0206677  
C119     C      0.799300000000     0.608960000000     0.602460000000     0.0683496  
C120     C      0.350250000000     0.560750000000     0.523010000000    -0.00937989 
C121     C      0.367130000000     0.610200000000     0.616650000000    -0.0199594  
C122     C      0.310400000000     0.593410000000     0.502430000000    -0.00720981 
C123     C      0.316500000000     0.632770000000     0.597810000000     0.0121321  
C124     C      0.276200000000     0.626060000000     0.644890000000     0.0599164  
C125     C      0.133100000000     0.651410000000     0.787340000000    -0.00642825 
C126     C      0.100220000000     0.530320000000     0.786860000000    -0.0138383  
C127     C      0.155170000000     0.645150000000     0.847850000000    -0.00877436 
C128     C      0.064170000000     0.523500000000     0.839780000000     0.0156476  
C129     C      0.995550000000     0.511250000000     0.825960000000     0.0677127  
C130     C      0.059140000000     0.483220000000     0.338590000000    -0.00870871 
C131     C      0.005640000000     0.552110000000     0.341320000000    -0.0161688  
C132     C      0.074280000000     0.503530000000     0.277740000000    -0.0133566  
C133     C      0.019950000000     0.574240000000     0.280700000000     0.00960757 
C134     C      0.963450000000     0.582130000000     0.257400000000     0.0602339  
C135     C      0.788740000000     0.294550000000     0.038440000000    -0.00817399 
C136     C      0.824550000000     0.284800000000     0.946200000000    -0.0145334  
C137     C      0.783110000000     0.229410000000     0.057550000000    -0.00839435 
C138     C      0.813410000000     0.215360000000     0.964540000000     0.00774708 
C139     C      0.793050000000     0.171960000000     0.916710000000     0.0600411  
C140     C      0.265970000000     0.831620000000     0.142610000000    -0.00826468 
C141     C      0.327130000000     0.767750000000     0.160340000000    -0.0148321  
C142     C      0.210000000000     0.769700000000     0.172470000000    -0.0115004  
C143     C      0.262960000000     0.706380000000     0.138890000000     0.0171254  
C144     C      0.267430000000     0.702960000000     0.078960000000     0.0262445  
C145     C      0.781470000000     0.431170000000     0.020440000000    -0.00717643 
C146     C      0.780980000000     0.472390000000     0.112180000000    -0.018507   
C147     C      0.777140000000     0.488600000000     0.991540000000    -0.0126453  
C148     C      0.780960000000     0.533490000000     0.084170000000     0.0178658  
C149     C      0.746390000000     0.554790000000     0.119860000000     0.0691376  
C150     C      0.259520000000     0.514610000000     0.091770000000    -0.0093345  
C151     C      0.264410000000     0.502100000000     0.991750000000    -0.0126044  
C152     C      0.328140000000     0.578220000000     0.094140000000    -0.0106446  
C153     C      0.338830000000     0.559560000000     0.994620000000     0.00587658 
C154     C      0.374820000000     0.542150000000     0.957100000000     0.0724925  
C155     C      0.783170000000     0.789310000000     0.636650000000    -0.00963231 
C156     C      0.806670000000     0.751080000000     0.551940000000     0.00695518 
C157     C      0.843370000000     0.858770000000     0.625570000000    -0.010303   
C158     C      0.854230000000     0.820190000000     0.532670000000     0.00620161 
C159     C      0.903750000000     0.817250000000     0.498770000000     0.0620276  
C160     C      0.321500000000     0.343810000000     0.448440000000    -0.0102475  
C161     C      0.340100000000     0.332150000000     0.550240000000    -0.0122688  
C162     C      0.250470000000     0.333100000000     0.460390000000    -0.0153418  
C163     C      0.281570000000     0.341910000000     0.559780000000     0.017683   
C164     C      0.261530000000     0.323830000000     0.617220000000     0.0612418  
C165     C      0.843320000000     0.143680000000     0.531190000000    -0.00855894 
C166     C      0.829830000000     0.079350000000     0.618440000000    -0.0188827  
C167     C      0.860710000000     0.099780000000     0.500370000000    -0.0039966  
C168     C      0.849690000000     0.035670000000     0.589960000000     0.0429205  
C169     C      0.884080000000     0.017080000000     0.634100000000    -0.0271738  
C170     C      0.280800000000     0.033740000000     0.546390000000    -0.0104825  
C171     C      0.310080000000     0.113090000000     0.468070000000    -0.0160698  
C172     C      0.352070000000     0.045020000000     0.551640000000    -0.0120814  
C173     C      0.383560000000     0.130810000000     0.472940000000     0.0155724  
C174     C      0.408250000000     0.142240000000     0.416640000000     0.0504848  
C175     C      0.144490000000     0.857400000000     0.547220000000     0.000711994
C176     C      0.141260000000     0.843760000000     0.446110000000    -0.00917924 
C177     C      0.110770000000     0.897830000000     0.539480000000    -0.0142934  
C178     C      0.123220000000     0.899630000000     0.435850000000     0.00794887 
C179     C      0.167000000000     0.946980000000     0.394030000000     0.0493156  
C180     C      0.035620000000     0.248380000000     0.575590000000    -0.00498335 
C181     C      0.103980000000     0.299130000000     0.662260000000    -0.0132635  
C182     C      0.072490000000     0.314510000000     0.545100000000    -0.0149052  
C183     C      0.134540000000     0.368110000000     0.632940000000     0.00948798 
C184     C      0.149990000000     0.419140000000     0.673510000000     0.0698507  
C185     C      0.037620000000     0.994320000000     0.787040000000    -0.00229213 
C186     C      0.158230000000     0.084440000000     0.791610000000    -0.0147984  
C187     C      0.018000000000     0.038020000000     0.816600000000    -0.0144536  
C188     C      0.137500000000     0.128160000000     0.820750000000     0.0116173  
C189     C      0.194850000000     0.179760000000     0.853430000000     0.0613461  
C190     C      0.043810000000     0.972920000000     0.280550000000    -0.0112866  
C191     C      0.109860000000     0.095890000000     0.277040000000    -0.0135128  
C192     C      0.988240000000     0.975110000000     0.311020000000    -0.0135148  
C193     C      0.052590000000     0.098160000000     0.304050000000     0.00803529 
C194     C      0.077270000000     0.162190000000     0.330690000000     0.0699926  
C195     C      0.756960000000     0.771900000000     0.981530000000     0.00696425 
C196     C      0.756920000000     0.831740000000     0.063840000000    -0.023815   
C197     C      0.828820000000     0.786310000000     0.997920000000    -0.0177825  
C198     C      0.823760000000     0.836580000000     0.082630000000     0.0269141  
C199     C      0.858930000000     0.883570000000     0.127350000000     0.0079615  
C200     C      0.363150000000     0.285740000000     0.049090000000    -0.00533425 
C201     C      0.327090000000     0.366840000000     0.062530000000    -0.0179467  
C202     C      0.290790000000     0.229040000000     0.052500000000    -0.0170876  
C203     C      0.253640000000     0.310710000000     0.071190000000     0.0111097  
C204     C      0.227810000000     0.329180000000     0.117090000000     0.0536017  
C205     C      0.785780000000     0.070140000000     0.170920000000    -0.0130287  
C206     C      0.765600000000     0.991010000000     0.094960000000    -0.0112582  
C207     C      0.861490000000     0.112830000000     0.155130000000    -0.013794   
C208     C      0.831540000000     0.045610000000     0.072440000000     0.00977446 
C209     C      0.853740000000     0.025200000000     0.025770000000     0.078251   
C210     C      0.382340000000     0.108460000000     0.966650000000    -0.0042974  
C211     C      0.324040000000     0.000920000000     0.920680000000    -0.0155938  
C212     C      0.321380000000     0.092540000000     0.998580000000    -0.00839384 
C213     C      0.255550000000     0.985820000000     0.943310000000     0.0110523  
C214     C      0.203490000000     0.958430000000     0.898110000000     0.0536113  
C215     C      0.995410000000     0.715620000000     0.052000000000    -0.00681351 
C216     C      0.120370000000     0.785630000000     0.045080000000    -0.0173076  
C217     C      0.988990000000     0.777590000000     0.050610000000    -0.0105622  
C218     C      0.115420000000     0.847630000000     0.040930000000     0.0145618  
C219     C      0.176130000000     0.900860000000     0.070040000000     0.0559924  
C220     C      0.085670000000     0.285690000000     0.975190000000    -0.00858307 
C221     C      0.992980000000     0.226260000000     0.039210000000    -0.00691905 
C222     C      0.118480000000     0.344940000000     0.014990000000    -0.0087377  
C223     C      0.035390000000     0.273970000000     0.085780000000     0.00754155 
C224     C      0.993490000000     0.273120000000     0.129580000000     0.0634228  
Co1      Co     0.044050000000     0.099680000000     0.096570000000     1.03105    
Co2      Co     0.055660000000     0.977540000000     0.983900000000     1.10626    
Co3      Co     0.150890000000     0.120580000000     0.016630000000     1.05345    
Co4      Co     0.981430000000     0.969830000000     0.096560000000     1.02372    
Co5      Co     0.137860000000     0.116820000000     0.476290000000     0.881631   
Co6      Co     0.006770000000     0.050910000000     0.614430000000     1.52766    
Co7      Co     0.023170000000     0.025280000000     0.493090000000     1.11793    
Co8      Co     0.165560000000     0.135800000000     0.614690000000     1.09752    
Co9      Co     0.032490000000     0.467720000000     0.983140000000     1.08327    
Co10     Co     0.001310000000     0.579670000000     0.087650000000     1.04346    
Co11     Co     0.984690000000     0.435410000000     0.109440000000     1.1086     
Co12     Co     0.133530000000     0.598920000000     0.046940000000     1.11824    
Co13     Co     0.073730000000     0.509390000000     0.528300000000     0.97821    
Co14     Co     0.088240000000     0.664960000000     0.610810000000     1.24391    
Co15     Co     0.023970000000     0.502020000000     0.614390000000     0.906046   
Co16     Co     0.144170000000     0.656710000000     0.491670000000     1.10726    
Co17     Co     0.463260000000     0.025220000000     0.105310000000     1.25223    
Co18     Co     0.612580000000     0.033040000000     0.022100000000     0.782255   
Co19     Co     0.554220000000     0.068000000000     0.002000000000     0.852476   
Co20     Co     0.531000000000     0.921940000000     0.112770000000     1.10716    
Co21     Co     0.525890000000     0.072260000000     0.593940000000     1.14257    
Co22     Co     0.641000000000     0.072770000000     0.506230000000     1.13749    
Co23     Co     0.598350000000     0.177890000000     0.500110000000     1.17096    
Co24     Co     0.593080000000     0.007970000000     0.590840000000     0.776571   
Co25     Co     0.567550000000     0.462420000000     0.987790000000     1.07745    
Co26     Co     0.537580000000     0.608380000000     0.055560000000     1.05218    
Co27     Co     0.480630000000     0.479610000000     0.074020000000     0.982266   
Co28     Co     0.654330000000     0.622300000000     0.990010000000     1.07959    
Co29     Co     0.560390000000     0.468930000000     0.475410000000     1.10843    
Co30     Co     0.557170000000     0.616880000000     0.566580000000     0.780517   
Co31     Co     0.524720000000     0.522180000000     0.577210000000     0.947786   
Co32     Co     0.667780000000     0.635720000000     0.489660000000     1.26018    
H1       H      0.568870000000     0.626050000000     0.766120000000     0.0506014  
H2       H      0.658680000000     0.629690000000     0.825150000000     0.0449625  
H3       H      0.457860000000     0.503990000000     0.775750000000     0.0492452  
H4       H      0.484470000000     0.435740000000     0.838310000000     0.0586323  
H5       H      0.659670000000     0.565300000000     0.788470000000     0.0502316  
H6       H      0.549550000000     0.443610000000     0.796570000000     0.0555201  
H7       H      0.633580000000     0.632200000000     0.724960000000     0.0585324  
H8       H      0.639160000000     0.519910000000     0.247730000000     0.0483456  
H9       H      0.560080000000     0.466700000000     0.320540000000     0.0418214  
H10      H      0.691530000000     0.645760000000     0.237620000000     0.0474537  
H11      H      0.668000000000     0.677770000000     0.320720000000     0.0483816  
H12      H      0.509620000000     0.501840000000     0.294210000000     0.0465974  
H13      H      0.580050000000     0.644170000000     0.302060000000     0.0478558  
H14      H      0.554920000000     0.466620000000     0.221860000000     0.0503688  
H15      H      0.700500000000     0.903430000000     0.496930000000     0.0446613  
H16      H      0.694140000000     0.819330000000     0.441200000000     0.0453531  
H17      H      0.505580000000     0.848000000000     0.490130000000     0.0495723  
H18      H      0.550440000000     0.784420000000     0.536510000000     0.055722   
H19      H      0.631740000000     0.819730000000     0.393900000000     0.0455459  
H20      H      0.490080000000     0.734910000000     0.483580000000     0.0516678  
H21      H      0.698660000000     0.931140000000     0.426960000000     0.0465254  
H22      H      0.473900000000     0.296830000000     0.576270000000     0.0486443  
H23      H      0.458310000000     0.205560000000     0.633030000000     0.0469336  
H24      H      0.661580000000     0.430630000000     0.641010000000     0.0407303  
H25      H      0.650530000000     0.343140000000     0.589300000000     0.047523   
H26      H      0.506640000000     0.255390000000     0.690460000000     0.0491864  
H27      H      0.665700000000     0.321510000000     0.658200000000     0.0444375  
H28      H      0.453070000000     0.311390000000     0.641910000000     0.0467453  
H29      H      0.664510000000     0.167430000000     0.837080000000     0.0517455  
H30      H      0.616930000000     0.178610000000     0.748440000000     0.047958   
H31      H      0.609230000000     0.993360000000     0.857580000000     0.0544989  
H32      H      0.684530000000     0.075730000000     0.792610000000     0.0545068  
H33      H      0.535950000000     0.106920000000     0.761730000000     0.0557853  
H34      H      0.627110000000     0.002290000000     0.756560000000     0.0551224  
H35      H      0.585070000000     0.162080000000     0.846420000000     0.0611128  
H36      H      0.620360000000     0.027640000000     0.300690000000     0.0487597  
H37      H      0.564810000000     0.970140000000     0.384360000000     0.0536473  
H38      H      0.574630000000     0.120070000000     0.262210000000     0.0444787  
H39      H      0.526490000000     0.126950000000     0.340720000000     0.0543872  
H40      H      0.482370000000     0.945210000000     0.353490000000     0.0497329  
H41      H      0.454870000000     0.044710000000     0.336720000000     0.0503228  
H42      H      0.556810000000     0.942690000000     0.287490000000     0.0491487  
H43      H      0.467740000000     0.697010000000     0.999010000000     0.063579   
H44      H      0.445910000000     0.782520000000     0.981870000000     0.0551767  
H45      H      0.647260000000     0.783360000000     0.920780000000     0.0427155  
H46      H      0.647380000000     0.845000000000     0.994530000000     0.0538464  
H47      H      0.478310000000     0.801060000000     0.914810000000     0.050251   
H48      H      0.644130000000     0.891570000000     0.935050000000     0.0532524  
H49      H      0.440820000000     0.686630000000     0.927550000000     0.0424896  
H50      H      0.590240000000     0.268130000000     0.159160000000     0.0439376  
H51      H      0.509790000000     0.305770000000     0.163480000000     0.0367408  
H52      H      0.643860000000     0.312320000000     0.065720000000     0.038498   
H53      H      0.585500000000     0.355500000000     0.001380000000     0.0259674  
H54      H      0.455880000000     0.250650000000     0.109610000000     0.0380805  
H55      H      0.507540000000     0.279640000000     0.009060000000     0.0400644  
H56      H      0.508090000000     0.195810000000     0.158700000000     0.0498733  
H57      H      0.869790000000     0.279100000000     0.539980000000     0.039621   
H58      H      0.840990000000     0.357300000000     0.581070000000     0.0461439  
H59      H      0.883070000000     0.289060000000     0.434440000000     0.0416415  
H60      H      0.905550000000     0.400040000000     0.414410000000     0.0491892  
H61      H      0.778430000000     0.340610000000     0.527190000000     0.0513009  
H62      H      0.820580000000     0.378880000000     0.424420000000     0.0416226  
H63      H      0.786600000000     0.240720000000     0.564630000000     0.05951    
H64      H      0.348580000000     0.807100000000     0.684210000000     0.0476745  
H65      H      0.352380000000     0.912650000000     0.691440000000     0.0488961  
H66      H      0.393730000000     0.810840000000     0.590980000000     0.042695   
H67      H      0.404720000000     0.903940000000     0.527440000000     0.0614241  
H68      H      0.287240000000     0.891480000000     0.637910000000     0.0383286  
H69      H      0.318570000000     0.878230000000     0.537200000000     0.044536   
H70      H      0.263810000000     0.788980000000     0.688240000000     0.045192   
H71      H      0.792300000000     0.471540000000     0.496640000000     0.038994   
H72      H      0.841420000000     0.454740000000     0.583490000000     0.0458431  
H73      H      0.817900000000     0.643720000000     0.519590000000     0.0345359  
H74      H      0.896110000000     0.607750000000     0.502370000000     0.0507091  
H75      H      0.804060000000     0.488660000000     0.623060000000     0.0482063  
H76      H      0.921010000000     0.662280000000     0.559780000000     0.0557282  
H77      H      0.726150000000     0.435540000000     0.544280000000     0.0370302  
H78      H      0.345090000000     0.643850000000     0.485930000000     0.0523963  
H79      H      0.378780000000     0.560550000000     0.487890000000     0.053771   
H80      H      0.346290000000     0.686190000000     0.587130000000     0.0388368  
H81      H      0.407730000000     0.648990000000     0.643420000000     0.0540026  
H82      H      0.315370000000     0.508560000000     0.535930000000     0.0498219  
H83      H      0.341600000000     0.563570000000     0.641800000000     0.0539093  
H84      H      0.274580000000     0.563170000000     0.468430000000     0.0476137  
H85      H      0.203100000000     0.644430000000     0.849090000000     0.0480763  
H86      H      0.176090000000     0.693950000000     0.766910000000     0.0411419  
H87      H      0.059940000000     0.479680000000     0.863440000000     0.0168156  
H88      H      0.149890000000     0.534560000000     0.797620000000     0.0548551  
H89      H      0.091090000000     0.661870000000     0.787380000000     0.0515562  
H90      H      0.069640000000     0.484760000000     0.762160000000     0.0489803  
H91      H      0.164090000000     0.689110000000     0.870740000000     0.0421252  
H92      H      0.127770000000     0.543700000000     0.275270000000     0.0488119  
H93      H      0.099910000000     0.475690000000     0.358030000000     0.049477   
H94      H      0.066620000000     0.623680000000     0.279440000000     0.0404422  
H95      H      0.005630000000     0.592480000000     0.363630000000     0.0579243  
H96      H      0.010740000000     0.435450000000     0.341290000000     0.0452969  
H97      H      0.954170000000     0.507940000000     0.344190000000     0.0486274  
H98      H      0.068680000000     0.459490000000     0.257190000000     0.0549575  
H99      H      0.832310000000     0.238620000000     0.076510000000     0.0475653  
H100     H      0.802390000000     0.327100000000     0.074410000000     0.0451874  
H101     H      0.862340000000     0.221990000000     0.980950000000     0.0393275  
H102     H      0.866800000000     0.309620000000     0.917770000000     0.0413779  
H103     H      0.738920000000     0.285060000000     0.021470000000     0.0501726  
H104     H      0.778370000000     0.279040000000     0.923530000000     0.0515708  
H105     H      0.745720000000     0.205930000000     0.090100000000     0.0548909  
H106     H      0.225470000000     0.771640000000     0.216930000000     0.0399024  
H107     H      0.277660000000     0.876430000000     0.165540000000     0.0481837  
H108     H      0.261100000000     0.661930000000     0.159390000000     0.0380437  
H109     H      0.328850000000     0.767500000000     0.206150000000     0.0430711  
H110     H      0.247560000000     0.835710000000     0.100250000000     0.0483455  
H111     H      0.371530000000     0.765070000000     0.148510000000     0.0494433  
H112     H      0.162180000000     0.770270000000     0.171250000000     0.041639   
H113     H      0.828370000000     0.527970000000     0.980080000000     0.0588566  
H114     H      0.810290000000     0.417890000000     0.994410000000     0.0489763  
H115     H      0.833900000000     0.574860000000     0.081700000000     0.0369475  
H116     H      0.808000000000     0.485560000000     0.153430000000     0.0462913  
H117     H      0.730120000000     0.387980000000     0.021880000000     0.0383376  
H118     H      0.728190000000     0.432330000000     0.118820000000     0.0496231  
H119     H      0.745940000000     0.469910000000     0.952570000000     0.0482834  
H120     H      0.322000000000     0.621860000000     0.085560000000     0.0469043  
H121     H      0.228020000000     0.514590000000     0.124470000000     0.0617461  
H122     H      0.339410000000     0.604540000000     0.976990000000     0.0396637  
H123     H      0.240530000000     0.502910000000     0.950600000000     0.0434449  
H124     H      0.266760000000     0.471620000000     0.101320000000     0.0471769  
H125     H      0.261990000000     0.453470000000     0.996570000000     0.0395225  
H126     H      0.351870000000     0.583050000000     0.136370000000     0.039546   
H127     H      0.821680000000     0.890660000000     0.613540000000     0.0396936  
H128     H      0.743200000000     0.794200000000     0.655480000000     0.0444525  
H129     H      0.825820000000     0.838970000000     0.506290000000     0.0461438  
H130     H      0.782370000000     0.720990000000     0.514330000000    -0.00169766 
H131     H      0.799640000000     0.762450000000     0.666890000000     0.0437953  
H132     H      0.835380000000     0.731530000000     0.576550000000     0.0429053  
H133     H      0.874010000000     0.876700000000     0.664810000000     0.0479448  
H134     H      0.253390000000     0.382060000000     0.457890000000     0.0427191  
H135     H      0.342710000000     0.379920000000     0.413600000000     0.044541   
H136     H      0.297760000000     0.395430000000     0.554930000000     0.0451491  
H137     H      0.377150000000     0.349060000000     0.586080000000     0.0621651  
H138     H      0.315200000000     0.295970000000     0.435680000000     0.0419246  
H139     H      0.323580000000     0.278790000000     0.546580000000     0.0529456  
H140     H      0.212850000000     0.302260000000     0.427770000000     0.0527541  
H141     H      0.814680000000     0.060160000000     0.478840000000     0.0495458  
H142     H      0.818040000000     0.161160000000     0.500610000000     0.0587074  
H143     H      0.802990000000     0.989570000000     0.576800000000     0.0295519  
H144     H      0.793940000000     0.050840000000     0.651340000000     0.0509316  
H145     H      0.889840000000     0.187610000000     0.546870000000     0.0368909  
H146     H      0.875020000000     0.121800000000     0.638590000000     0.0473431  
H147     H      0.897400000000     0.131090000000     0.468910000000     0.0450671  
H148     H      0.377850000000     0.075320000000     0.588780000000     0.055485   
H149     H      0.258580000000     0.020040000000     0.587540000000     0.0460165  
H150     H      0.412680000000     0.178100000000     0.495670000000     0.0430865  
H151     H      0.308570000000     0.157460000000     0.451180000000     0.0469746  
H152     H      0.250920000000     0.991870000000     0.518360000000     0.0452571  
H153     H      0.280790000000     0.072320000000     0.438480000000     0.0581536  
H154     H      0.347450000000     0.995780000000     0.558520000000     0.049007   
H155     H      0.055390000000     0.864300000000     0.541840000000     0.0617284  
H156     H      0.129710000000     0.831770000000     0.587960000000     0.0389343  
H157     H      0.070700000000     0.875700000000     0.417920000000     0.0458707  
H158     H      0.114760000000     0.806260000000     0.413390000000     0.0465871  
H159     H      0.200160000000     0.888750000000     0.549720000000     0.0316832  
H160     H      0.196330000000     0.864330000000     0.442540000000     0.0400548  
H161     H      0.128620000000     0.932920000000     0.574330000000     0.0478521  
H162     H      0.118370000000     0.320470000000     0.527100000000     0.0530506  
H163     H      0.021970000000     0.209020000000     0.545130000000     0.0512924  
H164     H      0.183770000000     0.380210000000     0.617490000000     0.0458855  
H165     H      0.141400000000     0.297270000000     0.692210000000     0.0510817  
H166     H      0.988840000000     0.242100000000     0.591830000000     0.0423317  
H167     H      0.060890000000     0.290860000000     0.686390000000     0.0418782  
H168     H      0.038170000000     0.314400000000     0.510610000000     0.0508657  
H169     H      0.004800000000     0.066670000000     0.785580000000     0.0540604  
H170     H      0.995470000000     0.960190000000     0.758620000000     0.0473549  
H171     H      0.124350000000     0.155460000000     0.788250000000     0.0434382  
H172     H      0.202700000000     0.115620000000     0.766380000000     0.0442067  
H173     H      0.046770000000     0.962880000000     0.818080000000     0.0455209  
H174     H      0.172750000000     0.057080000000     0.822920000000     0.0564104  
H175     H      0.971970000000     0.006600000000     0.839920000000     0.055712   
H176     H      0.948450000000     0.971380000000     0.280450000000     0.0524212  
H177     H      0.021510000000     0.927180000000     0.255910000000     0.0530087  
H178     H      0.016070000000     0.095740000000     0.270580000000     0.0503253  
H179     H      0.138230000000     0.140260000000     0.250010000000     0.0591908  
H180     H      0.080010000000     0.970230000000     0.311570000000     0.0498657  
H181     H      0.146540000000     0.096420000000     0.309500000000     0.0482375  
H182     H      0.963980000000     0.931040000000     0.338970000000     0.0569316  
H183     H      0.826230000000     0.742810000000     0.020860000000     0.043106   
H184     H      0.730050000000     0.724050000000     0.960060000000    -0.00872997 
H185     H      0.811440000000     0.788250000000     0.102960000000     0.0433521  
H186     H      0.727340000000     0.828070000000     0.099630000000     0.0505273  
H187     H      0.760700000000     0.810650000000     0.951230000000     0.0367931  
H188     H      0.766120000000     0.876400000000     0.038870000000     0.0496152  
H189     H      0.856690000000     0.793830000000     0.960080000000     0.0402872  
H190     H      0.269260000000     0.213720000000     0.009880000000     0.0167676  
H191     H      0.389480000000     0.271010000000     0.021170000000     0.040982   
H192     H      0.224370000000     0.307060000000     0.032310000000     0.0399058  
H193     H      0.324490000000     0.409100000000     0.042080000000     0.0461962  
H194     H      0.388000000000     0.293520000000     0.090900000000     0.0452121  
H195     H      0.354880000000     0.384520000000     0.103090000000     0.0266549  
H196     H      0.293960000000     0.187510000000     0.073940000000     0.0486609  
H197     H      0.867770000000     0.157860000000     0.132630000000     0.0460576  
H198     H      0.768020000000     0.104230000000     0.181670000000     0.0425926  
H199     H      0.820950000000     0.083710000000     0.052810000000     0.0504788  
H200     H      0.729370000000     0.963160000000     0.060310000000     0.0541504  
H201     H      0.783510000000     0.040430000000     0.208670000000     0.0441992  
H202     H      0.774170000000     0.955690000000     0.121560000000     0.0530031  
H203     H      0.894480000000     0.128600000000     0.193420000000     0.0500852  
H204     H      0.325480000000     0.073380000000     0.040520000000     0.060282   
H205     H      0.429390000000     0.143910000000     0.989920000000     0.0488938  
H206     H      0.242180000000     0.946010000000     0.975030000000     0.0402512  
H207     H      0.324320000000     0.953870000000     0.916690000000     0.0439958  
H208     H      0.380910000000     0.133340000000     0.926800000000     0.0441095  
H209     H      0.330240000000     0.023980000000     0.878690000000     0.0486333  
H210     H      0.322610000000     0.140160000000     0.002750000000     0.0357225  
H211     H      0.970150000000     0.783080000000     0.008470000000     0.0430477  
H212     H      0.949880000000     0.676340000000     0.029600000000     0.0386324  
H213     H      0.116390000000     0.861820000000     0.996460000000     0.0422626  
H214     H      0.162340000000     0.793510000000     0.019490000000     0.0474942  
H215     H      0.994570000000     0.698540000000     0.095620000000     0.0271381  
H216     H      0.132020000000     0.777450000000     0.088150000000     0.0539238  
H217     H      0.950370000000     0.769630000000     0.079940000000     0.0466615  
H218     H      0.165650000000     0.351600000000     0.033770000000     0.0411463  
H219     H      0.125680000000     0.282820000000     0.954460000000     0.0443706  
H220     H      0.070170000000     0.258530000000     0.105580000000     0.0696178  
H221     H      0.954830000000     0.177200000000     0.054850000000     0.0541484  
H222     H      0.055690000000     0.295350000000     0.942250000000     0.0406123  
H223     H      0.964410000000     0.246260000000     0.015090000000     0.0460839  
H224     H      0.133520000000     0.390130000000     0.989150000000     0.0414319  
N1       N      0.540720000000     0.537390000000     0.724810000000    -0.154026   
N2       N      0.575380000000     0.531260000000     0.837290000000    -0.175726   
N3       N      0.401880000000     0.362820000000     0.708980000000    -0.0976715  
N4       N      0.592600000000     0.572250000000     0.212380000000    -0.175459   
N5       N      0.605690000000     0.572440000000     0.328430000000    -0.184231   
N6       N      0.639560000000     0.747490000000     0.185410000000    -0.0942074  
N7       N      0.610060000000     0.900870000000     0.470120000000    -0.159239   
N8       N      0.592930000000     0.768230000000     0.468880000000    -0.16839    
N9       N      0.490890000000     0.819780000000     0.356070000000    -0.106831   
N10      N      0.555320000000     0.375590000000     0.622430000000    -0.172097   
N11      N      0.565510000000     0.261610000000     0.624590000000    -0.170832   
N12      N      0.606610000000     0.373410000000     0.766220000000    -0.104251   
N13      N      0.586270000000     0.070980000000     0.858380000000    -0.152529   
N14      N      0.611240000000     0.085440000000     0.743110000000    -0.177225   
N15      N      0.454010000000     0.920210000000     0.797580000000    -0.101742   
N16      N      0.532790000000     0.015910000000     0.256730000000    -0.189188   
N17      N      0.542360000000     0.048130000000     0.368630000000    -0.177121   
N18      N      0.421050000000     0.082090000000     0.208980000000    -0.113284   
N19      N      0.544880000000     0.720920000000     0.943640000000    -0.167082   
N20      N      0.553850000000     0.839970000000     0.978850000000    -0.159381   
N21      N      0.565610000000     0.804860000000     0.811820000000    -0.100349   
N22      N      0.557210000000     0.221210000000     0.081590000000    -0.174927   
N23      N      0.543990000000     0.335420000000     0.082010000000    -0.177824   
N24      N      0.631050000000     0.251790000000     0.942470000000    -0.092078   
N25      N      0.793050000000     0.250980000000     0.476220000000    -0.174083   
N26      N      0.877400000000     0.387760000000     0.498520000000    -0.177592   
N27      N      0.775590000000     0.252290000000     0.325600000000    -0.100928   
N28      N      0.292060000000     0.777680000000     0.608010000000    -0.182723   
N29      N      0.381420000000     0.914210000000     0.609370000000    -0.156846   
N30      N      0.328860000000     0.746870000000     0.467660000000    -0.105925   
N31      N      0.763470000000     0.537530000000     0.524160000000    -0.19254    
N32      N      0.888830000000     0.560040000000     0.579940000000    -0.173519   
N33      N      0.784320000000     0.614410000000     0.654240000000    -0.0965381  
N34      N      0.274720000000     0.597250000000     0.548300000000    -0.173425   
N35      N      0.395900000000     0.597480000000     0.569920000000    -0.151924   
N36      N      0.242290000000     0.621590000000     0.689830000000    -0.0902071  
N37      N      0.102750000000     0.583730000000     0.873420000000    -0.177009   
N38      N      0.110580000000     0.590290000000     0.756270000000    -0.177247   
N39      N      0.932500000000     0.500100000000     0.813230000000    -0.0943897  
N40      N      0.030490000000     0.527140000000     0.249920000000    -0.17239    
N41      N      0.054340000000     0.534270000000     0.366710000000    -0.170994   
N42      N      0.911600000000     0.589540000000     0.236280000000    -0.104967   
N43      N      0.765270000000     0.187230000000     0.009470000000    -0.154725   
N44      N      0.838130000000     0.325090000000     0.995170000000    -0.179065   
N45      N      0.775870000000     0.131850000000     0.872990000000    -0.100989   
N46      N      0.201400000000     0.708420000000     0.149890000000    -0.178776   
N47      N      0.327810000000     0.828150000000     0.138760000000    -0.180994   
N48      N      0.272860000000     0.700960000000     0.023990000000    -0.115499   
N49      N      0.749660000000     0.517160000000     0.027250000000    -0.175357   
N50      N      0.812020000000     0.447210000000     0.076960000000    -0.177429   
N51      N      0.715280000000     0.575200000000     0.152570000000    -0.0944184  
N52      N      0.369340000000     0.575200000000     0.052450000000    -0.161521   
N53      N      0.227730000000     0.507610000000     0.035770000000    -0.178503   
N54      N      0.402030000000     0.523380000000     0.918980000000    -0.085115   
N55      N      0.886230000000     0.862990000000     0.580850000000    -0.181906   
N56      N      0.756820000000     0.751050000000     0.586290000000    -0.18238    
N57      N      0.947430000000     0.813100000000     0.466800000000    -0.101746   
N58      N      0.229820000000     0.303850000000     0.516210000000    -0.178135   
N59      N      0.367750000000     0.366630000000     0.497990000000    -0.174822   
N60      N      0.251510000000     0.309410000000     0.671640000000    -0.0994989  
N61      N      0.888700000000     0.069580000000     0.539600000000    -0.22109    
N62      N      0.801000000000     0.105820000000     0.577540000000    -0.182283   
N63      N      0.907840000000     0.000720000000     0.681050000000    -0.126204   
N64      N      0.392580000000     0.078900000000     0.503170000000    -0.179792   
N65      N      0.280340000000     0.091790000000     0.522030000000    -0.17502    
N66      N      0.429630000000     0.153680000000     0.364510000000    -0.106259   
N67      N      0.126130000000     0.934360000000     0.486390000000    -0.177821   
N68      N      0.123410000000     0.812150000000     0.500970000000    -0.191586   
N69      N      0.206850000000     0.989660000000     0.354870000000    -0.10253    
N70      N      0.091390000000     0.367520000000     0.584220000000    -0.161681   
N71      N      0.078620000000     0.245800000000     0.622100000000    -0.183766   
N72      N      0.166140000000     0.465910000000     0.711550000000    -0.092717   
N73      N      0.076110000000     0.084260000000     0.851960000000    -0.173478   
N74      N      0.099770000000     0.036750000000     0.757480000000    -0.186596   
N75      N      0.247810000000     0.227400000000     0.883180000000    -0.104617   
N76      N      0.017350000000     0.038430000000     0.340430000000    -0.159906   
N77      N      0.079780000000     0.033690000000     0.246340000000    -0.174522   
N78      N      0.099690000000     0.221450000000     0.354490000000    -0.095296   
N79      N      0.862180000000     0.844500000000     0.033200000000    -0.186482   
N80      N      0.720870000000     0.772930000000     0.029750000000    -0.178942   
N81      N      0.883490000000     0.917990000000     0.174690000000    -0.107073   
N82      N      0.246370000000     0.245030000000     0.081800000000    -0.173584   
N83      N      0.365610000000     0.346980000000     0.029820000000    -0.177889   
N84      N      0.204050000000     0.345860000000     0.159350000000    -0.0977542  
N85      N      0.881090000000     0.077160000000     0.119170000000    -0.159832   
N86      N      0.739920000000     0.023750000000     0.127620000000    -0.169494   
N87      N      0.868670000000     0.011060000000     0.977060000000    -0.0844473  
N88      N      0.257940000000     0.043560000000     0.969890000000    -0.173674   
N89      N      0.380990000000     0.046830000000     0.956250000000    -0.172436   
N90      N      0.155550000000     0.932260000000     0.856660000000    -0.10611    
N91      N      0.052970000000     0.838540000000     0.063750000000    -0.181028   
N92      N      0.057630000000     0.726530000000     0.027970000000    -0.176224   
N93      N      0.231070000000     0.950360000000     0.096510000000    -0.0978879  
N94      N      0.075570000000     0.339880000000     0.060000000000    -0.179746   
N95      N      0.040220000000     0.223020000000     0.003310000000    -0.172396   
N96      N      0.957510000000     0.275700000000     0.170340000000    -0.111242   
O1       O      0.009080000000     0.118570000000     0.031450000000    -0.434221   
O2       O      0.960610000000     0.903710000000     0.989330000000    -0.428292   
O3       O      0.128660000000     0.107120000000     0.938320000000    -0.437064   
O4       O      0.944680000000     0.027850000000     0.111520000000    -0.46227    
O5       O      0.028840000000     0.019380000000     0.928370000000    -0.448275   
O6       O      0.997490000000     0.131340000000     0.136600000000    -0.380616   
O7       O      0.929700000000     0.955540000000     0.035330000000    -0.471545   
O8       O      0.110160000000     0.179300000000     0.004100000000    -0.413701   
O9       O      0.080390000000     0.086510000000     0.164880000000    -0.434063   
O10      O      0.145450000000     0.012240000000     0.955390000000    -0.427879   
O11      O      0.176270000000     0.135390000000     0.090340000000    -0.433807   
O12      O      0.000810000000     0.895940000000     0.087250000000    -0.411682   
O13      O      0.086330000000     0.941540000000     0.035720000000    -0.487377   
O14      O      0.131860000000     0.192510000000     0.100430000000    -0.351645   
O15      O      0.027020000000     0.980330000000     0.166230000000    -0.449821   
O16      O      0.201200000000     0.076600000000     0.022230000000    -0.432039   
O17      O      0.067130000000     0.042860000000     0.048520000000    -0.521777   
O18      O      0.060910000000     0.092910000000     0.423230000000    -0.447859   
O19      O      0.025460000000     0.135330000000     0.616860000000    -0.542551   
O20      O      0.961060000000     0.068460000000     0.476830000000    -0.400215   
O21      O      0.196620000000     0.209230000000     0.566530000000    -0.45614    
O22      O      0.974730000000     0.051570000000     0.556780000000    -0.784295   
O23      O      0.146010000000     0.201310000000     0.485510000000    -0.407471   
O24      O      0.128420000000     0.184380000000     0.649940000000    -0.441131   
O25      O      0.991100000000     0.985940000000     0.425530000000    -0.4057     
O26      O      0.225460000000     0.148720000000     0.508200000000    -0.432501   
O27      O      0.977660000000     0.958960000000     0.612180000000    -0.489039   
O28      O      0.062030000000     0.975620000000     0.509540000000    -0.473227   
O29      O      0.143700000000     0.071810000000     0.672650000000    -0.474606   
O30      O      0.042860000000     0.051630000000     0.684600000000    -0.552883   
O31      O      0.141560000000     0.036550000000     0.457410000000    -0.429315   
O32      O      0.211430000000     0.094840000000     0.584840000000    -0.433874   
O33      O      0.950820000000     0.947740000000     0.523840000000    -0.410721   
O34      O      0.082630000000     0.079270000000     0.560000000000    -0.530774   
O35      O      0.935710000000     0.422700000000     0.976010000000    -0.42353    
O36      O      0.009720000000     0.616830000000     0.017650000000    -0.435653   
O37      O      0.903420000000     0.444930000000     0.120720000000    -0.415554   
O38      O      0.139230000000     0.602420000000     0.964570000000    -0.414921   
O39      O      0.918710000000     0.519680000000     0.058290000000    -0.454498   
O40      O      0.034190000000     0.536930000000     0.943700000000    -0.452246   
O41      O      0.115730000000     0.671810000000     0.030130000000    -0.434075   
O42      O      0.925160000000     0.374520000000     0.057210000000    -0.469961   
O43      O      0.134880000000     0.499760000000     0.983050000000    -0.412536   
O44      O      0.988980000000     0.545590000000     0.165010000000    -0.415257   
O45      O      0.051320000000     0.410540000000     0.101970000000    -0.428746   
O46      O      0.138360000000     0.603150000000     0.122460000000    -0.448413   
O47      O      0.087710000000     0.656670000000     0.123760000000    -0.405132   
O48      O      0.029340000000     0.392940000000     0.013730000000    -0.487562   
O49      O      0.160020000000     0.540900000000     0.063790000000    -0.482631   
O50      O      0.037040000000     0.486230000000     0.168790000000    -0.445159   
O51      O      0.035890000000     0.518840000000     0.055890000000    -0.519027   
O52      O      0.985980000000     0.475070000000     0.489330000000    -0.414388   
O53      O      0.104690000000     0.728940000000     0.560860000000    -0.542685   
O54      O      0.962060000000     0.533490000000     0.629430000000    -0.40371    
O55      O      0.083170000000     0.604620000000     0.437100000000    -0.461055   
O56      O      0.999970000000     0.632990000000     0.594070000000    -0.490651   
O57      O      0.103150000000     0.525110000000     0.450700000000    -0.375487   
O58      O      0.103500000000     0.709980000000     0.476190000000    -0.459614   
O59      O      0.950890000000     0.443850000000     0.569490000000    -0.466382   
O60      O      0.163430000000     0.544810000000     0.561880000000    -0.409351   
O61      O      0.071510000000     0.623970000000     0.680820000000    -0.489101   
O62      O      0.070100000000     0.449660000000     0.607400000000    -0.409745   
O63      O      0.211100000000     0.717470000000     0.542000000000    -0.469136   
O64      O      0.182230000000     0.703010000000     0.627690000000    -0.472774   
O65      O      0.066720000000     0.428400000000     0.520360000000    -0.400617   
O66      O      0.201140000000     0.617170000000     0.495120000000    -0.432294   
O67      O      0.089830000000     0.544520000000     0.671480000000    -0.434411   
O68      O      0.079330000000     0.590740000000     0.554500000000    -0.526909   
O69      O      0.422100000000     0.040200000000     0.041300000000    -0.479049   
O70      O      0.610180000000     0.947470000000     0.011140000000    -0.352598   
O71      O      0.575670000000     0.112930000000     0.937270000000    -0.368617   
O72      O      0.439040000000     0.878020000000     0.122290000000    -0.477529   
O73      O      0.569020000000     0.016220000000     0.943630000000    -0.398679   
O74      O      0.389070000000     0.935670000000     0.106930000000    -0.465666   
O75      O      0.512880000000     0.875970000000     0.044430000000    -0.419941   
O76      O      0.459900000000     0.015850000000     0.972420000000    -0.380337   
O77      O      0.495230000000     0.014890000000     0.169260000000    -0.550785   
O78      O      0.693520000000     0.078560000000     0.986410000000    -0.349257   
O79      O      0.540880000000     0.137510000000     0.025530000000    -0.386111   
O80      O      0.627240000000     0.952070000000     0.112940000000    -0.427005   
O81      O      0.665700000000     0.054450000000     0.093950000000    -0.374409   
O82      O      0.527890000000     0.116420000000     0.112530000000    -0.459479   
O83      O      0.547560000000     0.960990000000     0.186350000000    -0.448201   
O84      O      0.652140000000     0.131870000000     0.026040000000    -0.406553   
O85      O      0.529450000000     0.003020000000     0.067490000000    -0.528376   
O86      O      0.466040000000     0.042800000000     0.529220000000    -0.447757   
O87      O      0.669570000000     0.016640000000     0.476060000000    -0.396779   
O88      O      0.583160000000     0.132620000000     0.430370000000    -0.4475     
O89      O      0.493880000000     0.965790000000     0.596560000000    -0.432027   
O90      O      0.565540000000     0.035430000000     0.458220000000    -0.465088   
O91      O      0.452560000000     0.020920000000     0.636000000000    -0.4127     
O92      O      0.577660000000     0.958410000000     0.522580000000    -0.41239    
O93      O      0.505130000000     0.142680000000     0.497440000000    -0.482506   
O94      O      0.578440000000     0.107300000000     0.658540000000    -0.456344   
O95      O      0.699550000000     0.149690000000     0.455190000000    -0.381232   
O96      O      0.611170000000     0.226500000000     0.563890000000    -0.44429    
O97      O      0.689580000000     0.034070000000     0.595310000000    -0.418492   
O98      O      0.716590000000     0.118820000000     0.545610000000    -0.504673   
O99      O      0.517720000000     0.151790000000     0.601360000000    -0.401548   
O100     O      0.608110000000     0.034610000000     0.664600000000    -0.431187   
O101     O      0.689130000000     0.222350000000     0.497870000000    -0.479873   
O102     O      0.602490000000     0.106190000000     0.549930000000    -0.625228   
O103     O      0.470160000000     0.388580000000     0.994840000000    -0.407068   
O104     O      0.508720000000     0.617650000000     0.982210000000    -0.421268   
O105     O      0.439150000000     0.533390000000     0.067910000000    -0.492727   
O106     O      0.633420000000     0.581930000000     0.917440000000    -0.4385     
O107     O      0.482570000000     0.639850000000     0.079280000000    -0.381918   
O108     O      0.541680000000     0.484310000000     0.921340000000    -0.464555   
O109     O      0.610460000000     0.672320000000     0.956120000000    -0.419792   
O110     O      0.435840000000     0.453230000000     0.006340000000    -0.436627   
O111     O      0.661480000000     0.503820000000     0.968820000000    -0.438024   
O112     O      0.573280000000     0.610930000000     0.128570000000    -0.431159   
O113     O      0.502230000000     0.405150000000     0.090420000000    -0.396991   
O114     O      0.681160000000     0.666440000000     0.054810000000    -0.452236   
O115     O      0.613650000000     0.702100000000     0.052920000000    -0.377935   
O116     O      0.596580000000     0.441270000000     0.054220000000    -0.460855   
O117     O      0.706510000000     0.586520000000     0.021560000000    -0.439381   
O118     O      0.521200000000     0.506190000000     0.143870000000    -0.464343   
O119     O      0.570440000000     0.546600000000     0.028030000000    -0.510268   
O120     O      0.466730000000     0.444060000000     0.458870000000    -0.425425   
O121     O      0.540890000000     0.660200000000     0.501440000000    -0.378956   
O122     O      0.459520000000     0.551560000000     0.554370000000    -0.43023    
O123     O      0.648550000000     0.621260000000     0.412350000000    -0.477758   
O124     O      0.505960000000     0.642070000000     0.604530000000    -0.346383   
O125     O      0.581540000000     0.513490000000     0.408580000000    -0.484831   
O126     O      0.643910000000     0.705030000000     0.478300000000    -0.454574   
O127     O      0.455890000000     0.445260000000     0.547020000000    -0.417468   
O128     O      0.651780000000     0.480130000000     0.490020000000    -0.448946   
O129     O      0.577810000000     0.585940000000     0.639880000000    -0.419842   
O130     O      0.580730000000     0.482690000000     0.603280000000    -0.381883   
O131     O      0.687020000000     0.646080000000     0.564000000000    -0.482878   
O132     O      0.641910000000     0.700850000000     0.584740000000    -0.361929   
O133     O      0.536900000000     0.410650000000     0.538240000000    -0.448212   
O134     O      0.702560000000     0.585080000000     0.498080000000    -0.555326   
O135     O      0.481630000000     0.494240000000     0.642580000000    -0.378114   
O136     O      0.579990000000     0.560240000000     0.513700000000    -0.550434   


