data_structure

_audit_creation_method RASPA-1.0
_audit_creation_date 2023-6-4
_audit_author_name 'Poobodin Mano'

_cell_length_a    23.1963
_cell_length_b    23.807
_cell_length_c    24.2071
_cell_angle_alpha 87.1406
_cell_angle_beta  93.8136
_cell_angle_gamma 120.432
_cell_volume      11498.7

_symmetry_cell_setting          triclinic
_symmetry_space_group_name_Hall 'P 1'
_symmetry_space_group_name_H-M  'P 1'
_symmetry_Int_Tables_number     1

_symmetry_equiv_pos_as_xyz 'x,y,z'

loop_
_atom_site_label
_atom_site_type_symbol
_atom_site_fract_x
_atom_site_fract_y
_atom_site_fract_z
_atom_site_charge
C1       C      0.056310000000     0.188250000000     0.001980000000     0.451876   
C2       C      0.903220000000     0.930760000000     0.989650000000     0.492221   
C3       C      0.038750000000     0.034410000000     0.892130000000     0.517965   
C4       C      0.908430000000     0.015290000000     0.123830000000     0.421739   
C5       C      0.066750000000     0.043650000000     0.170690000000     0.52412    
C6       C      0.178950000000     0.032190000000     0.965950000000     0.49412    
C7       C      0.204440000000     0.184990000000     0.054590000000     0.508543   
C8       C      0.997040000000     0.885720000000     0.078800000000     0.513732   
C9       C      0.044360000000     0.030990000000     0.394780000000     0.481958   
C10      C      0.047550000000     0.177160000000     0.576340000000     0.469351   
C11      C      0.895450000000     0.987370000000     0.488260000000     0.420951   
C12      C      0.209600000000     0.171540000000     0.493080000000     0.48371    
C13      C      0.197690000000     0.036400000000     0.573250000000     0.460105   
C14      C      0.945710000000     0.904350000000     0.587920000000     0.47429    
C15      C      0.112090000000     0.938040000000     0.451410000000     0.423228   
C16      C      0.046350000000     0.054010000000     0.667290000000     0.479598   
C17      C      0.942020000000     0.420420000000     0.006440000000     0.465      
C18      C      0.054850000000     0.700090000000     0.052200000000     0.484964   
C19      C      0.922860000000     0.547430000000     0.110150000000     0.559581   
C20      C      0.065630000000     0.548250000000     0.920880000000     0.460025   
C21      C      0.212040000000     0.597320000000     0.021010000000     0.473868   
C22      C      0.038630000000     0.512860000000     0.207460000000     0.554084   
C23      C      0.047330000000     0.393910000000     0.093670000000     0.487342   
C24      C      0.200810000000     0.694570000000     0.106320000000     0.462965   
C25      C      0.963600000000     0.419870000000     0.495140000000     0.471483   
C26      C      0.118390000000     0.717550000000     0.494330000000     0.548301   
C27      C      0.931260000000     0.539150000000     0.577900000000     0.523696   
C28      C      0.117740000000     0.551670000000     0.429930000000     0.491352   
C29      C      0.233740000000     0.569410000000     0.553780000000     0.487672   
C30      C      0.057130000000     0.554290000000     0.690080000000     0.495282   
C31      C      0.018690000000     0.387580000000     0.617370000000     0.436005   
C32      C      0.216510000000     0.709140000000     0.612370000000     0.529866   
C33      C      0.424040000000     0.062040000000     0.007450000000     0.521675   
C34      C      0.563970000000     0.922910000000     0.998320000000     0.501829   
C35      C      0.595650000000     0.097070000000     0.915990000000     0.513362   
C36      C      0.421050000000     0.939620000000     0.110850000000     0.465435   
C37      C      0.568910000000     0.057930000000     0.188220000000     0.462365   
C38      C      0.703740000000     0.192590000000     0.024340000000     0.558677   
C39      C      0.555760000000     0.218440000000     0.058160000000     0.446657   
C40      C      0.682730000000     0.026150000000     0.105450000000     0.511126   
C41      C      0.428580000000     0.039780000000     0.517440000000     0.47565    
C42      C      0.562170000000     0.909780000000     0.531890000000     0.509575   
C43      C      0.575850000000     0.069980000000     0.416510000000     0.517417   
C44      C      0.430960000000     0.945180000000     0.655530000000     0.436863   
C45      C      0.598320000000     0.075030000000     0.695550000000     0.495368   
C46      C      0.714720000000     0.197350000000     0.495330000000     0.529046   
C47      C      0.529940000000     0.167140000000     0.608200000000     0.48428    
C48      C      0.712750000000     0.031330000000     0.584450000000     0.497044   
C49      C      0.447650000000     0.401430000000     0.017570000000     0.441446   
C50      C      0.559080000000     0.698120000000     0.001170000000     0.511874   
C51      C      0.415490000000     0.564330000000     0.085210000000     0.520255   
C52      C      0.564420000000     0.546330000000     0.915880000000     0.516082   
C53      C      0.692340000000     0.529390000000     0.007990000000     0.400037   
C54      C      0.540240000000     0.555980000000     0.192320000000     0.491901   
C55      C      0.570070000000     0.442360000000     0.119630000000     0.454461   
C56      C      0.693230000000     0.714280000000     0.080940000000     0.472877   
C57      C      0.442020000000     0.401860000000     0.488080000000     0.457613   
C58      C      0.594440000000     0.695690000000     0.544310000000     0.526696   
C59      C      0.465600000000     0.582780000000     0.596160000000     0.508435   
C60      C      0.573500000000     0.527400000000     0.418890000000     0.460227   
C61      C      0.703980000000     0.544840000000     0.518660000000     0.492385   
C62      C      0.528600000000     0.502220000000     0.692150000000     0.448013   
C63      C      0.519180000000     0.387500000000     0.615100000000     0.453756   
C64      C      0.726580000000     0.668280000000     0.594590000000     0.478309   
C65      C      0.577680000000     0.573290000000     0.767270000000     0.0376495  
C66      C      0.486200000000     0.467760000000     0.782490000000    -0.0648216  
C67      C      0.584780000000     0.585320000000     0.823600000000     0.047733   
C68      C      0.496620000000     0.478090000000     0.840030000000     0.380112   
C69      C      0.599550000000     0.591680000000     0.337060000000     0.0389694  
C70      C      0.537340000000     0.477550000000     0.329540000000    -0.0596889  
C71      C      0.591370000000     0.599100000000     0.280100000000     0.0580537  
C72      C      0.524960000000     0.485060000000     0.272250000000     0.376273   
C73      C      0.544810000000     0.812450000000     0.577280000000     0.0502215  
C74      C      0.585940000000     0.837200000000     0.487440000000    -0.053615   
C75      C      0.558820000000     0.761940000000     0.582250000000     0.0796949  
C76      C      0.593820000000     0.782410000000     0.490360000000     0.406818   
C77      C      0.459730000000     0.271120000000     0.627200000000     0.0280527  
C78      C      0.576880000000     0.331930000000     0.641950000000    -0.066896   
C79      C      0.463260000000     0.213880000000     0.626560000000     0.0539577  
C80      C      0.580790000000     0.276000000000     0.638000000000     0.38905    
C81      C      0.647660000000     0.076430000000     0.784200000000     0.0335662  
C82      C      0.589770000000     0.133910000000     0.768240000000    -0.0551829  
C83      C      0.642580000000     0.078360000000     0.840740000000     0.0732335  
C84      C      0.587430000000     0.138640000000     0.825460000000     0.392012   
C85      C      0.580160000000     0.115280000000     0.269760000000     0.025782   
C86      C      0.567320000000     0.010500000000     0.277450000000    -0.0693133  
C87      C      0.577130000000     0.116580000000     0.327090000000     0.0557817  
C88      C      0.565130000000     0.011960000000     0.334880000000     0.381112   
C89      C      0.497080000000     0.808900000000     0.987090000000     0.0261433  
C90      C      0.609040000000     0.863600000000     0.960770000000    -0.0643036  
C91      C      0.495670000000     0.749980000000     0.986560000000     0.0598574  
C92      C      0.606990000000     0.804000000000     0.958710000000     0.38321    
C93      C      0.520210000000     0.326980000000     0.131970000000     0.0338278  
C94      C      0.628140000000     0.388100000000     0.098380000000    -0.0675821  
C95      C      0.515470000000     0.269930000000     0.113120000000     0.0552248  
C96      C      0.620960000000     0.332200000000     0.074610000000     0.386908   
C97      C      0.845050000000     0.369920000000     0.491930000000     0.0409343  
C98      C      0.892840000000     0.308980000000     0.466580000000    -0.0418579  
C99      C      0.782710000000     0.312950000000     0.495510000000     0.0637833  
C100     C      0.829210000000     0.251820000000     0.467150000000     0.394704   
C101     C      0.385390000000     0.830900000000     0.657200000000     0.0346114  
C102     C      0.314450000000     0.873300000000     0.667250000000    -0.0547486  
C103     C      0.330220000000     0.770420000000     0.643870000000     0.0562928  
C104     C      0.258690000000     0.811890000000     0.655990000000     0.385978   
C105     C      0.875190000000     0.582570000000     0.521660000000     0.0189223  
C106     C      0.811820000000     0.481840000000     0.568250000000    -0.0752529  
C107     C      0.817500000000     0.583130000000     0.503030000000     0.0601826  
C108     C      0.753880000000     0.482730000000     0.550220000000     0.380759   
C109     C      0.312730000000     0.572310000000     0.623470000000     0.0227079  
C110     C      0.347740000000     0.622570000000     0.535790000000    -0.0749941  
C111     C      0.376930000000     0.582560000000     0.636570000000     0.0482292  
C112     C      0.409370000000     0.628000000000     0.547010000000     0.376702   
C113     C      0.048910000000     0.591470000000     0.833980000000     0.0264045  
C114     C      0.073330000000     0.506760000000     0.835360000000    -0.0670507  
C115     C      0.049690000000     0.594690000000     0.775980000000     0.0526034  
C116     C      0.071200000000     0.507910000000     0.777130000000     0.376936   
C117     C      0.090660000000     0.580510000000     0.284240000000     0.0389062  
C118     C      0.048280000000     0.467700000000     0.296660000000    -0.0591433  
C119     C      0.110580000000     0.590360000000     0.339720000000     0.0520659  
C120     C      0.070060000000     0.477840000000     0.353060000000     0.3743     
C121     C      0.845140000000     0.350810000000     0.054910000000     0.0478862  
C122     C      0.867390000000     0.313830000000     0.974800000000    -0.0537817  
C123     C      0.783920000000     0.294780000000     0.058670000000     0.0790437  
C124     C      0.806330000000     0.256260000000     0.979130000000     0.396555   
C125     C      0.280140000000     0.785160000000     0.162580000000     0.0329976  
C126     C      0.300160000000     0.775000000000     0.070460000000    -0.0816908  
C127     C      0.334440000000     0.850230000000     0.162290000000     0.0500424  
C128     C      0.351870000000     0.838030000000     0.069580000000     0.371719   
C129     C      0.767120000000     0.488300000000     0.023910000000     0.0169584  
C130     C      0.798920000000     0.592240000000     0.055440000000    -0.0748099  
C131     C      0.822630000000     0.491630000000     0.053530000000     0.0695344  
C132     C      0.855490000000     0.596110000000     0.084250000000     0.383787   
C133     C      0.298760000000     0.586980000000     0.990740000000     0.0227231  
C134     C      0.311280000000     0.639080000000     0.074360000000    -0.0772042  
C135     C      0.345860000000     0.570060000000     0.011210000000     0.0506326  
C136     C      0.361110000000     0.625640000000     0.093760000000     0.380263   
C137     C      0.843710000000     0.727980000000     0.595190000000     0.0297545  
C138     C      0.785460000000     0.771800000000     0.634970000000    -0.0629539  
C139     C      0.900980000000     0.789810000000     0.594290000000     0.0473606  
C140     C      0.842500000000     0.834430000000     0.632690000000     0.372969   
C141     C      0.323660000000     0.345200000000     0.476490000000     0.0247441  
C142     C      0.381610000000     0.290650000000     0.460030000000    -0.0688026  
C143     C      0.264190000000     0.285670000000     0.479020000000     0.0511024  
C144     C      0.320890000000     0.230860000000     0.459250000000     0.373177   
C145     C      0.850330000000     0.053130000000     0.505320000000     0.0171322  
C146     C      0.795770000000     0.944860000000     0.539550000000    -0.0593502  
C147     C      0.808250000000     0.065810000000     0.533410000000     0.0460706  
C148     C      0.752600000000     0.957570000000     0.568010000000     0.385167   
C149     C      0.311150000000     0.092670000000     0.547880000000     0.0471333  
C150     C      0.254680000000     0.978560000000     0.556610000000    -0.06533    
C151     C      0.365590000000     0.092400000000     0.526470000000     0.0701877  
C152     C      0.312140000000     0.978760000000     0.540100000000     0.375247   
C153     C      0.176330000000     0.885150000000     0.446690000000     0.0326193  
C154     C      0.058560000000     0.824640000000     0.441720000000    -0.0729686  
C155     C      0.177450000000     0.827310000000     0.459210000000     0.0613109  
C156     C      0.059560000000     0.767610000000     0.453500000000     0.384975   
C157     C      0.084630000000     0.277200000000     0.621770000000     0.0292371  
C158     C      0.976820000000     0.223760000000     0.578510000000    -0.0634858  
C159     C      0.075670000000     0.329030000000     0.634060000000     0.0513434  
C160     C      0.966270000000     0.274250000000     0.593830000000     0.378786   
C161     C      0.064750000000     0.010730000000     0.751740000000     0.0273583  
C162     C      0.003980000000     0.066180000000     0.749080000000    -0.0648389  
C163     C      0.059120000000     0.002660000000     0.808620000000     0.058568   
C164     C      0.003260000000     0.062930000000     0.806600000000     0.384991   
C165     C      0.003560000000     0.986140000000     0.306520000000     0.0306167  
C166     C      0.101940000000     0.089080000000     0.315330000000    -0.0650713  
C167     C      0.015310000000     0.985230000000     0.251290000000     0.0599294  
C168     C      0.111850000000     0.089820000000     0.259130000000     0.386518   
C169     C      0.782050000000     0.762220000000     0.018710000000     0.0327674  
C170     C      0.744140000000     0.827360000000     0.054260000000    -0.0488789  
C171     C      0.830230000000     0.816150000000     0.989870000000     0.0712238  
C172     C      0.793570000000     0.881950000000     0.025830000000     0.399702   
C173     C      0.338950000000     0.352400000000     0.052910000000     0.0184385  
C174     C      0.383640000000     0.286210000000     0.034160000000    -0.0665588  
C175     C      0.278640000000     0.297740000000     0.067110000000     0.0596031  
C176     C      0.321890000000     0.230960000000     0.045940000000     0.380582   
C177     C      0.857540000000     0.078740000000     0.133150000000     0.0397872  
C178     C      0.794610000000     0.965150000000     0.148120000000    -0.0503231  
C179     C      0.798790000000     0.081150000000     0.128320000000     0.0622116  
C180     C      0.735350000000     0.967490000000     0.143770000000     0.389495   
C181     C      0.245300000000     0.985100000000     0.991090000000     0.0369169  
C182     C      0.291510000000     0.080740000000     0.935530000000    -0.0450088  
C183     C      0.308040000000     0.992020000000     0.000900000000     0.0646285  
C184     C      0.355350000000     0.087150000000     0.944600000000     0.388225   
C185     C      0.994620000000     0.751660000000     0.015020000000     0.0307534  
C186     C      0.023000000000     0.754580000000     0.110800000000    -0.0380813  
C187     C      0.977330000000     0.799220000000     0.022700000000     0.0529163  
C188     C      0.002470000000     0.798790000000     0.118750000000     0.394687   
C189     C      0.110070000000     0.302720000000     0.022380000000     0.0257904  
C190     C      0.997220000000     0.232040000000     0.041920000000    -0.0771437  
C191     C      0.108460000000     0.353470000000     0.048930000000     0.0421692  
C192     C      0.995190000000     0.282290000000     0.067670000000     0.377229   
Co1      Co     0.056450000000     0.115890000000     0.082850000000     0.965366   
Co2      Co     0.048450000000     0.964280000000     0.993700000000     1.14232    
Co3      Co     0.122540000000     0.116270000000     0.969660000000     1.08101    
Co4      Co     0.975880000000     0.992360000000     0.077240000000     1.07403    
Co5      Co     0.117720000000     0.028370000000     0.488620000000     1.07453    
Co6      Co     0.979380000000     0.047500000000     0.560220000000     1.09506    
Co7      Co     0.991230000000     0.948940000000     0.488370000000     0.978629   
Co8      Co     0.135420000000     0.117890000000     0.585760000000     1.09154    
Co9      Co     0.089570000000     0.490260000000     0.025310000000     1.07323    
Co10     Co     0.071760000000     0.623500000000     0.129400000000     1.20243    
Co11     Co     0.975750000000     0.463030000000     0.105200000000     1.1089     
Co12     Co     0.107550000000     0.630940000000     0.005560000000     1.023      
Co13     Co     0.099400000000     0.481290000000     0.541080000000     0.896496   
Co14     Co     0.067520000000     0.637130000000     0.588770000000     1.24148    
Co15     Co     0.014370000000     0.485510000000     0.586880000000     0.975164   
Co16     Co     0.179610000000     0.639820000000     0.514490000000     1.16065    
Co17     Co     0.498020000000     0.073850000000     0.107700000000     0.99911    
Co18     Co     0.641960000000     0.060210000000     0.007830000000     1.22934    
Co19     Co     0.568130000000     0.138390000000     0.021480000000     1.07583    
Co20     Co     0.536800000000     0.969120000000     0.087790000000     1.11606    
Co21     Co     0.498400000000     0.036080000000     0.604550000000     1.08127    
Co22     Co     0.646090000000     0.053730000000     0.504360000000     1.16105    
Co23     Co     0.578320000000     0.142100000000     0.517430000000     1.06965    
Co24     Co     0.574910000000     0.981800000000     0.618630000000     1.02405    
Co25     Co     0.584840000000     0.501590000000     0.023190000000     1.01208    
Co26     Co     0.551130000000     0.637780000000     0.103110000000     1.12098    
Co27     Co     0.470140000000     0.485380000000     0.087310000000     1.1041     
Co28     Co     0.639570000000     0.628810000000     0.006000000000     1.03598    
Co29     Co     0.581290000000     0.465960000000     0.530150000000     1.13528    
Co30     Co     0.596600000000     0.601890000000     0.627010000000     1.09842    
Co31     Co     0.465530000000     0.471670000000     0.578510000000     1.05153    
Co32     Co     0.631940000000     0.615420000000     0.498210000000     1.11925    
F1       F      0.455830000000     0.429200000000     0.874690000000    -0.427119   
F2       F      0.487300000000     0.430580000000     0.241940000000    -0.437969   
F3       F      0.618130000000     0.769310000000     0.446250000000    -0.430617   
F4       F      0.641940000000     0.281120000000     0.644890000000    -0.417375   
F5       F      0.556510000000     0.169110000000     0.844070000000    -0.403096   
F6       F      0.556180000000     0.958390000000     0.364680000000    -0.42857    
F7       F      0.662330000000     0.803900000000     0.943680000000    -0.438739   
F8       F      0.673080000000     0.336450000000     0.048500000000    -0.448667   
F9       F      0.824200000000     0.195080000000     0.452720000000    -0.444023   
F10      F      0.197070000000     0.805550000000     0.656040000000    -0.442499   
F11      F      0.693960000000     0.430340000000     0.563020000000    -0.456073   
F12      F      0.452520000000     0.648500000000     0.505410000000    -0.432612   
F13      F      0.082890000000     0.465330000000     0.751560000000    -0.43073    
F14      F      0.058100000000     0.425240000000     0.385630000000    -0.435893   
F15      F      0.789370000000     0.210650000000     0.940020000000    -0.427432   
F16      F      0.380490000000     0.860770000000     0.020000000000    -0.437902   
F17      F      0.893880000000     0.647950000000     0.116940000000    -0.444474   
F18      F      0.388850000000     0.644620000000     0.145600000000    -0.432805   
F19      F      0.838690000000     0.885390000000     0.651130000000    -0.430246   
F20      F      0.321500000000     0.176030000000     0.447470000000    -0.441585   
F21      F      0.704930000000     0.908520000000     0.598470000000    -0.432998   
F22      F      0.310640000000     0.921040000000     0.538990000000    -0.443459   
F23      F      0.000590000000     0.710380000000     0.451700000000    -0.450831   
F24      F      0.906000000000     0.269170000000     0.580990000000    -0.430125   
F25      F      0.973220000000     0.090080000000     0.832420000000    -0.422792   
F26      F      0.165850000000     0.142450000000     0.237350000000    -0.424182   
F27      F      0.795180000000     0.939600000000     0.028300000000    -0.431106   
F28      F      0.315640000000     0.171320000000     0.042040000000    -0.432621   
F29      F      0.676210000000     0.910870000000     0.148810000000    -0.433965   
F30      F      0.409000000000     0.139940000000     0.922720000000    -0.405224   
F31      F      0.009330000000     0.822340000000     0.170330000000    -0.433824   
F32      F      0.936740000000     0.268180000000     0.089590000000    -0.444512   
H1       H      0.624540000000     0.632710000000     0.837380000000     0.0515919  
H2       H      0.611420000000     0.612240000000     0.740060000000     0.0204786  
H3       H      0.446940000000     0.420880000000     0.767330000000     0.0959372  
H4       H      0.614290000000     0.648350000000     0.263080000000     0.0584545  
H5       H      0.628590000000     0.635570000000     0.361070000000     0.0528427  
H6       H      0.514690000000     0.428990000000     0.347960000000     0.0948549  
H7       H      0.548210000000     0.734040000000     0.620830000000     0.0407855  
H8       H      0.525900000000     0.822600000000     0.612970000000     0.0392632  
H9       H      0.599570000000     0.867520000000     0.450160000000     0.1204     
H10      H      0.417240000000     0.167840000000     0.621430000000     0.0411009  
H11      H      0.411260000000     0.267540000000     0.620970000000     0.0450636  
H12      H      0.623200000000     0.377350000000     0.649890000000     0.138273   
H13      H      0.664480000000     0.055740000000     0.867910000000     0.0522518  
H14      H      0.671350000000     0.050780000000     0.770110000000     0.064785   
H15      H      0.566500000000     0.154790000000     0.740590000000     0.11841    
H16      H      0.582200000000     0.159940000000     0.344740000000     0.042966   
H17      H      0.585840000000     0.157350000000     0.245770000000     0.0545279  
H18      H      0.561890000000     0.967100000000     0.259550000000     0.110962   
H19      H      0.450060000000     0.706280000000     0.998010000000     0.0428173  
H20      H      0.452470000000     0.808270000000     0.998790000000     0.0771104  
H21      H      0.655130000000     0.907800000000     0.950900000000     0.117197   
H22      H      0.470450000000     0.223730000000     0.120840000000     0.0532209  
H23      H      0.477840000000     0.322870000000     0.152170000000     0.0695623  
H24      H      0.674810000000     0.433240000000     0.094980000000     0.0980224  
H25      H      0.741010000000     0.317570000000     0.507330000000     0.0593428  
H26      H      0.848250000000     0.415350000000     0.501400000000     0.0558547  
H27      H      0.935490000000     0.305090000000     0.456380000000     0.117465   
H28      H      0.339080000000     0.731460000000     0.634220000000     0.0407644  
H29      H      0.434530000000     0.835950000000     0.656930000000     0.0454507  
H30      H      0.306240000000     0.913240000000     0.674600000000     0.108531   
H31      H      0.822140000000     0.624780000000     0.478950000000     0.0466789  
H32      H      0.922110000000     0.623480000000     0.509230000000     0.0991584  
H33      H      0.807580000000     0.440890000000     0.593180000000     0.113966   
H34      H      0.386180000000     0.563620000000     0.675760000000     0.0384946  
H35      H      0.274720000000     0.548080000000     0.653750000000     0.0560724  
H36      H      0.338470000000     0.638560000000     0.495120000000     0.107603   
H37      H      0.040030000000     0.630420000000     0.754590000000     0.0473937  
H38      H      0.039830000000     0.625560000000     0.854460000000     0.0475058  
H39      H      0.083600000000     0.471620000000     0.857160000000     0.0996429  
H40      H      0.134880000000     0.640090000000     0.354000000000     0.0502121  
H41      H      0.100520000000     0.623330000000     0.259260000000     0.0396818  
H42      H      0.023510000000     0.418640000000     0.280900000000     0.104223   
H43      H      0.753780000000     0.288530000000     0.093400000000     0.0634827  
H44      H      0.860900000000     0.384050000000     0.088720000000     0.0186646  
H45      H      0.899020000000     0.320520000000     0.941100000000     0.104244   
H46      H      0.347120000000     0.878960000000     0.199190000000     0.0478317  
H47      H      0.250620000000     0.766150000000     0.198940000000     0.0479773  
H48      H      0.288610000000     0.747930000000     0.032560000000     0.0993495  
H49      H      0.830350000000     0.451420000000     0.049520000000     0.0512274  
H50      H      0.734340000000     0.445330000000     0.999970000000     0.0908624  
H51      H      0.790350000000     0.632410000000     0.059780000000     0.10539    
H52      H      0.357000000000     0.541460000000     0.985010000000     0.051242   
H53      H      0.272660000000     0.567720000000     0.951200000000     0.0416763  
H54      H      0.294160000000     0.659780000000     0.103350000000     0.0947156  
H55      H      0.944940000000     0.794000000000     0.576900000000     0.0501934  
H56      H      0.845240000000     0.687630000000     0.577890000000     0.0377489  
H57      H      0.739710000000     0.766560000000     0.649540000000     0.0969479  
H58      H      0.219140000000     0.286270000000     0.487450000000     0.0477624  
H59      H      0.321760000000     0.388890000000     0.483450000000     0.0517051  
H60      H      0.427370000000     0.290680000000     0.453210000000     0.0958592  
H61      H      0.815760000000     0.114580000000     0.529470000000     0.0805793  
H62      H      0.888040000000     0.092710000000     0.480970000000     0.0679887  
H63      H      0.790340000000     0.896880000000     0.543630000000     0.115128   
H64      H      0.407770000000     0.139250000000     0.515160000000     0.0532433  
H65      H      0.314180000000     0.139340000000     0.551100000000     0.0592704  
H66      H      0.210910000000     0.932290000000     0.566660000000     0.103321   
H67      H      0.225550000000     0.830370000000     0.466640000000     0.0727131  
H68      H      0.223240000000     0.930840000000     0.444670000000     0.0654847  
H69      H      0.010090000000     0.820940000000     0.434260000000     0.0977809  
H70      H      0.117130000000     0.370340000000     0.655100000000     0.0597049  
H71      H      0.132020000000     0.280570000000     0.634360000000     0.0450548  
H72      H      0.936310000000     0.182870000000     0.556680000000     0.0935278  
H73      H      0.082000000000     0.977480000000     0.830610000000     0.0398762  
H74      H      0.090210000000     0.990380000000     0.731410000000     0.0526795  
H75      H      0.981510000000     0.091500000000     0.726680000000     0.109045   
H76      H      0.978960000000     0.943190000000     0.227690000000     0.0676335  
H77      H      0.960790000000     0.943550000000     0.323580000000     0.0569832  
H78      H      0.138440000000     0.130120000000     0.339880000000     0.114653   
H79      H      0.862220000000     0.808750000000     0.964230000000     0.0369791  
H80      H      0.778680000000     0.715830000000     0.012980000000     0.0298842  
H81      H      0.709570000000     0.833480000000     0.077770000000     0.11525    
H82      H      0.238470000000     0.304860000000     0.078750000000     0.0415488  
H83      H      0.342440000000     0.399210000000     0.055960000000     0.0359325  
H84      H      0.423910000000     0.279730000000     0.021650000000     0.113055   
H85      H      0.803030000000     0.128320000000     0.120190000000     0.0643443  
H86      H      0.904560000000     0.123930000000     0.128490000000     0.0601017  
H87      H      0.790940000000     0.918150000000     0.155350000000     0.108083   
H88      H      0.312170000000     0.956100000000     0.027680000000     0.0551884  
H89      H      0.203550000000     0.943400000000     0.010240000000     0.051812   
H90      H      0.287000000000     0.117680000000     0.910810000000     0.105915   
H91      H      0.965670000000     0.820470000000     0.986290000000     0.0136694  
H92      H      0.993020000000     0.735730000000     0.973470000000     0.0402378  
H93      H      0.041450000000     0.738990000000     0.147260000000     0.0984661  
H94      H      0.153670000000     0.400910000000     0.050300000000     0.0331642  
H95      H      0.156610000000     0.312640000000     0.005690000000     0.045465   
H96      H      0.951670000000     0.184820000000     0.040370000000     0.108054   
N1       N      0.529430000000     0.514190000000     0.746940000000    -0.166225   
N2       N      0.547140000000     0.536670000000     0.860340000000    -0.233092   
N3       N      0.572010000000     0.531170000000     0.362000000000    -0.162208   
N4       N      0.551750000000     0.546230000000     0.247760000000    -0.225278   
N5       N      0.561560000000     0.852010000000     0.530980000000    -0.161547   
N6       N      0.582640000000     0.746560000000     0.538710000000    -0.225871   
N7       N      0.517480000000     0.330400000000     0.630280000000    -0.16046    
N8       N      0.524290000000     0.217860000000     0.625820000000    -0.235206   
N9       N      0.615340000000     0.098380000000     0.748200000000    -0.16271    
N10      N      0.608800000000     0.105800000000     0.861060000000    -0.230145   
N11      N      0.574340000000     0.061870000000     0.244880000000    -0.161284   
N12      N      0.570670000000     0.065450000000     0.359830000000    -0.236155   
N13      N      0.556090000000     0.865820000000     0.980310000000    -0.164672   
N14      N      0.553050000000     0.748880000000     0.978760000000    -0.238248   
N15      N      0.574640000000     0.386730000000     0.120470000000    -0.15495    
N16      N      0.563380000000     0.273630000000     0.080500000000    -0.218373   
N17      N      0.901150000000     0.367330000000     0.482040000000    -0.15436    
N18      N      0.775040000000     0.253310000000     0.485500000000    -0.230112   
N19      N      0.377610000000     0.883630000000     0.663130000000    -0.15153    
N20      N      0.267400000000     0.762380000000     0.639150000000    -0.237624   
N21      N      0.872540000000     0.533640000000     0.556450000000    -0.168812   
N22      N      0.757690000000     0.535920000000     0.521230000000    -0.241379   
N23      N      0.297820000000     0.588810000000     0.571690000000    -0.168894   
N24      N      0.422260000000     0.604750000000     0.596170000000    -0.246158   
N25      N      0.061780000000     0.548220000000     0.863780000000    -0.16293    
N26      N      0.060010000000     0.552490000000     0.747290000000    -0.229429   
N27      N      0.058670000000     0.519310000000     0.262560000000    -0.181786   
N28      N      0.100150000000     0.539400000000     0.374590000000    -0.228278   
N29      N      0.884820000000     0.361930000000     0.011270000000    -0.166      
N30      N      0.764070000000     0.247980000000     0.020460000000    -0.239811   
N31      N      0.261710000000     0.749450000000     0.115280000000    -0.163852   
N32      N      0.369160000000     0.876660000000     0.115140000000    -0.23642    
N33      N      0.753270000000     0.537150000000     0.027070000000    -0.146226   
N34      N      0.866890000000     0.545160000000     0.084070000000    -0.245396   
N35      N      0.278250000000     0.617430000000     0.024000000000    -0.167716   
N36      N      0.374760000000     0.587020000000     0.063700000000    -0.238469   
N37      N      0.785530000000     0.719960000000     0.613020000000    -0.168611   
N38      N      0.898390000000     0.843930000000     0.607800000000    -0.227207   
N39      N      0.383120000000     0.346950000000     0.472650000000    -0.16405    
N40      N      0.263830000000     0.228240000000     0.475000000000    -0.230786   
N41      N      0.845560000000     0.993440000000     0.509460000000    -0.170956   
N42      N      0.758570000000     0.018200000000     0.564100000000    -0.236878   
N43      N      0.254720000000     0.035740000000     0.561330000000    -0.161312   
N44      N      0.368020000000     0.036050000000     0.525060000000    -0.223769   
N45      N      0.116590000000     0.883770000000     0.444080000000    -0.151422   
N46      N      0.118730000000     0.769980000000     0.467850000000    -0.244592   
N47      N      0.036620000000     0.226030000000     0.591500000000    -0.164966   
N48      N      0.017790000000     0.329160000000     0.617840000000    -0.215684   
N49      N      0.037820000000     0.043080000000     0.722470000000    -0.165241   
N50      N      0.031790000000     0.031930000000     0.836010000000    -0.240978   
N51      N      0.047680000000     0.037360000000     0.338710000000    -0.164457   
N52      N      0.067690000000     0.038180000000     0.227030000000    -0.236315   
N53      N      0.740650000000     0.768160000000     0.052830000000    -0.164951   
N54      N      0.840770000000     0.877230000000     0.998180000000    -0.224405   
N55      N      0.390740000000     0.346630000000     0.034680000000    -0.161477   
N56      N      0.268410000000     0.237080000000     0.059320000000    -0.231874   
N57      N      0.854560000000     0.019900000000     0.137190000000    -0.145054   
N58      N      0.737720000000     0.024780000000     0.128220000000    -0.232794   
N59      N      0.237900000000     0.032350000000     0.962480000000    -0.163071   
N60      N      0.363540000000     0.045580000000     0.981330000000    -0.229005   
N61      N      0.022150000000     0.733450000000     0.058650000000    -0.162995   
N62      N      0.983850000000     0.823930000000     0.074300000000    -0.243121   
N63      N      0.054730000000     0.241540000000     0.020150000000    -0.163398   
N64      N      0.050870000000     0.343370000000     0.071380000000    -0.236457   
O1       O      0.016390000000     0.133700000000     0.020670000000    -0.423431   
O2       O      0.950680000000     0.920220000000     0.981910000000    -0.445806   
O3       O      0.051530000000     0.085750000000     0.915860000000    -0.418062   
O4       O      0.902990000000     0.960210000000     0.119030000000    -0.387011   
O5       O      0.047440000000     0.992040000000     0.918950000000    -0.473477   
O6       O      0.962550000000     0.066060000000     0.108630000000    -0.461217   
O7       O      0.919960000000     0.983320000000     0.013150000000    -0.385154   
O8       O      0.107620000000     0.192010000000     0.983090000000    -0.392514   
O9       O      0.091600000000     0.099000000000     0.148180000000    -0.416353   
O10      O      0.138360000000     0.995790000000     0.000790000000    -0.459757   
O11      O      0.193370000000     0.143730000000     0.019820000000    -0.436444   
O12      O      0.951280000000     0.898960000000     0.078750000000    -0.384951   
O13      O      0.051630000000     0.930430000000     0.063300000000    -0.458524   
O14      O      0.154070000000     0.185160000000     0.072740000000    -0.389666   
O15      O      0.025300000000     0.995630000000     0.142510000000    -0.441108   
O16      O      0.166040000000     0.071680000000     0.939030000000    -0.413282   
O17      O      0.058920000000     0.044420000000     0.031170000000    -0.532013   
O18      O      0.097410000000     0.061360000000     0.424130000000    -0.436204   
O19      O      0.008740000000     0.135350000000     0.541960000000    -0.433566   
O20      O      0.898530000000     0.936570000000     0.494430000000    -0.377177   
O21      O      0.172200000000     0.175580000000     0.526150000000    -0.455802   
O22      O      0.951560000000     0.036220000000     0.486110000000    -0.440919   
O23      O      0.201660000000     0.115520000000     0.484820000000    -0.355071   
O24      O      0.092950000000     0.168930000000     0.600470000000    -0.426528   
O25      O      0.993590000000     0.984420000000     0.416570000000    -0.428656   
O26      O      0.142150000000     0.993400000000     0.553840000000    -0.414198   
O27      O      0.936830000000     0.953230000000     0.587830000000    -0.37903    
O28      O      0.057430000000     0.930280000000     0.467610000000    -0.495474   
O29      O      0.098850000000     0.061610000000     0.647150000000    -0.451088   
O30      O      0.004840000000     0.062750000000     0.637030000000    -0.438941   
O31      O      0.161450000000     0.995860000000     0.447970000000    -0.36917    
O32      O      0.201030000000     0.089460000000     0.583610000000    -0.430457   
O33      O      0.987590000000     0.907280000000     0.555790000000    -0.436788   
O34      O      0.060160000000     0.047230000000     0.532030000000    -0.544882   
O35      O      0.996520000000     0.421790000000     0.999660000000    -0.40702    
O36      O      0.091950000000     0.699830000000     0.091000000000    -0.489806   
O37      O      0.922190000000     0.495630000000     0.121770000000    -0.486338   
O38      O      0.048490000000     0.581260000000     0.947060000000    -0.432647   
O39      O      0.978120000000     0.599590000000     0.114200000000    -0.441212   
O40      O      0.093170000000     0.520860000000     0.948450000000    -0.429989   
O41      O      0.041270000000     0.659880000000     0.014490000000    -0.408415   
O42      O      0.946870000000     0.465750000000     0.033190000000    -0.466502   
O43      O      0.175080000000     0.545840000000     0.045950000000    -0.466525   
O44      O      0.054910000000     0.562180000000     0.178000000000    -0.566803   
O45      O      0.992120000000     0.390750000000     0.095630000000    -0.39897    
O46      O      0.174970000000     0.686010000000     0.057220000000    -0.447977   
O47      O      0.165620000000     0.657890000000     0.145250000000    -0.431182   
O48      O      0.094920000000     0.450810000000     0.092300000000    -0.447651   
O49      O      0.185310000000     0.620860000000     0.987090000000    -0.407931   
O50      O      0.004480000000     0.459520000000     0.183500000000    -0.42684    
O51      O      0.063170000000     0.553250000000     0.067410000000    -0.475644   
O52      O      0.013840000000     0.413870000000     0.504850000000    -0.38799    
O53      O      0.068040000000     0.675860000000     0.518750000000    -0.442967   
O54      O      0.936260000000     0.493380000000     0.602260000000    -0.388334   
O55      O      0.133810000000     0.607050000000     0.448040000000    -0.463161   
O56      O      0.983200000000     0.591430000000     0.570360000000    -0.532657   
O57      O      0.120300000000     0.509200000000     0.462850000000    -0.358231   
O58      O      0.170360000000     0.714430000000     0.501620000000    -0.470493   
O59      O      0.968990000000     0.468830000000     0.515990000000    -0.423871   
O60      O      0.184650000000     0.528440000000     0.579190000000    -0.419196   
O61      O      0.058500000000     0.602380000000     0.663660000000    -0.454985   
O62      O      0.966400000000     0.393030000000     0.608610000000    -0.317812   
O63      O      0.229820000000     0.676140000000     0.581740000000    -0.469801   
O64      O      0.157320000000     0.698680000000     0.611100000000    -0.450543   
O65      O      0.074790000000     0.439520000000     0.611790000000    -0.430286   
O66      O      0.221500000000     0.591280000000     0.509950000000    -0.471806   
O67      O      0.050400000000     0.507020000000     0.663130000000    -0.362572   
O68      O      0.087580000000     0.569240000000     0.556310000000    -0.529118   
O69      O      0.425440000000     0.047910000000     0.057860000000    -0.448598   
O70      O      0.620620000000     0.972520000000     0.002970000000    -0.461639   
O71      O      0.594010000000     0.140650000000     0.943730000000    -0.33726    
O72      O      0.455340000000     0.957010000000     0.070200000000    -0.446694   
O73      O      0.595670000000     0.049450000000     0.941310000000    -0.474884   
O74      O      0.440100000000     0.983300000000     0.145860000000    -0.383107   
O75      O      0.517950000000     0.924010000000     0.021110000000    -0.415767   
O76      O      0.479030000000     0.097410000000     0.984960000000    -0.374049   
O77      O      0.566430000000     0.102260000000     0.160170000000    -0.451355   
O78      O      0.691170000000     0.146200000000     0.995410000000    -0.487059   
O79      O      0.574280000000     0.218490000000     0.009650000000    -0.336977   
O80      O      0.624360000000     0.976300000000     0.105680000000    -0.402388   
O81      O      0.691840000000     0.073440000000     0.074260000000    -0.477416   
O82      O      0.531430000000     0.165690000000     0.087180000000    -0.478171   
O83      O      0.552530000000     0.004990000000     0.164080000000    -0.420234   
O84      O      0.658570000000     0.187020000000     0.054180000000    -0.429848   
O85      O      0.561450000000     0.054910000000     0.049650000000    -0.560605   
O86      O      0.440220000000     0.997900000000     0.541270000000    -0.392151   
O87      O      0.610070000000     0.960450000000     0.511560000000    -0.431367   
O88      O      0.578120000000     0.117440000000     0.440660000000    -0.440994   
O89      O      0.486410000000     0.952270000000     0.642030000000    -0.512449   
O90      O      0.587260000000     0.030970000000     0.444690000000    -0.445909   
O91      O      0.423140000000     0.994080000000     0.648080000000    -0.373752   
O92      O      0.529000000000     0.917400000000     0.566320000000    -0.448274   
O93      O      0.479690000000     0.095640000000     0.508180000000    -0.430846   
O94      O      0.551350000000     0.077120000000     0.668760000000    -0.437364   
O95      O      0.701790000000     0.142650000000     0.479190000000    -0.423023   
O96      O      0.582480000000     0.177770000000     0.586970000000    -0.401178   
O97      O      0.660920000000     0.987220000000     0.606430000000    -0.383984   
O98      O      0.708220000000     0.078090000000     0.564070000000    -0.454206   
O99      O      0.481550000000     0.109640000000     0.606700000000    -0.398105   
O100     O      0.618800000000     0.039770000000     0.677630000000    -0.437101   
O101     O      0.671430000000     0.199390000000     0.522090000000    -0.436343   
O102     O      0.581470000000     0.062410000000     0.558360000000    -0.521502   
O103     O      0.505020000000     0.406780000000     0.022100000000    -0.336753   
O104     O      0.522450000000     0.665960000000     0.040220000000    -0.468454   
O105     O      0.420050000000     0.522450000000     0.060690000000    -0.468416   
O106     O      0.602010000000     0.602400000000     0.934190000000    -0.45732    
O107     O      0.458870000000     0.592610000000     0.123320000000    -0.410709   
O108     O      0.550070000000     0.499540000000     0.948880000000    -0.389623   
O109     O      0.609050000000     0.692110000000     0.992350000000    -0.39414    
O110     O      0.449540000000     0.454340000000     0.016950000000    -0.435803   
O111     O      0.640920000000     0.472980000000     0.998360000000    -0.358437   
O112     O      0.578710000000     0.610020000000     0.168560000000    -0.440525   
O113     O      0.511880000000     0.435120000000     0.116620000000    -0.4096     
O114     O      0.685060000000     0.659660000000     0.072690000000    -0.4523     
O115     O      0.641660000000     0.712760000000     0.095420000000    -0.413247   
O116     O      0.614870000000     0.493740000000     0.097210000000    -0.410053   
O117     O      0.682910000000     0.577540000000     0.010420000000    -0.486404   
O118     O      0.488520000000     0.513070000000     0.165230000000    -0.388706   
O119     O      0.552620000000     0.561720000000     0.053680000000    -0.522585   
O120     O      0.493040000000     0.398050000000     0.503180000000    -0.438625   
O121     O      0.612140000000     0.681960000000     0.591240000000    -0.456854   
O122     O      0.453280000000     0.540400000000     0.561590000000    -0.440351   
O123     O      0.569770000000     0.569890000000     0.443970000000    -0.441711   
O124     O      0.507670000000     0.592490000000     0.635950000000    -0.438573   
O125     O      0.589520000000     0.490170000000     0.447210000000    -0.405063   
O126     O      0.585550000000     0.660580000000     0.503680000000    -0.39143    
O127     O      0.441500000000     0.451260000000     0.503200000000    -0.423648   
O128     O      0.663440000000     0.519030000000     0.554860000000    -0.467676   
O129     O      0.582910000000     0.530100000000     0.668650000000    -0.436403   
O130     O      0.467320000000     0.389790000000     0.599120000000    -0.417831   
O131     O      0.703190000000     0.672870000000     0.547210000000    -0.449931   
O132     O      0.688130000000     0.625000000000     0.627860000000    -0.42219    
O133     O      0.573900000000     0.435790000000     0.602980000000    -0.414622   
O134     O      0.694860000000     0.581850000000     0.484200000000    -0.42042    
O135     O      0.475790000000     0.483070000000     0.661180000000    -0.404528   
O136     O      0.567320000000     0.539890000000     0.556710000000    -0.511253   


