data_structure

_audit_creation_method RASPA-1.0
_audit_creation_date 2023-6-4
_audit_author_name 'Poobodin Mano'

_cell_length_a    23.6144
_cell_length_b    23.5554
_cell_length_c    24.0303
_cell_angle_alpha 87.1377
_cell_angle_beta  93.814
_cell_angle_gamma 120.433
_cell_volume      11497.6

_symmetry_cell_setting          triclinic
_symmetry_space_group_name_Hall 'P 1'
_symmetry_space_group_name_H-M  'P 1'
_symmetry_Int_Tables_number     1

_symmetry_equiv_pos_as_xyz 'x,y,z'

loop_
_atom_site_label
_atom_site_type_symbol
_atom_site_fract_x
_atom_site_fract_y
_atom_site_fract_z
_atom_site_charge
C1       C      0.107000000000     0.218240000000     0.020740000000     0.483766   
C2       C      0.941590000000     0.902060000000     0.074520000000     0.436975   
C3       C      0.067490000000     0.059150000000     0.938540000000     0.475341   
C4       C      0.941610000000     0.075700000000     0.145110000000     0.497781   
C5       C      0.078110000000     0.091910000000     0.220140000000     0.48295    
C6       C      0.175690000000     0.015590000000     0.005110000000     0.458318   
C7       C      0.213990000000     0.197560000000     0.114340000000     0.444325   
C8       C      0.094640000000     0.943050000000     0.130120000000     0.463719   
C9       C      0.997250000000     0.036470000000     0.432380000000     0.508011   
C10      C      0.002850000000     0.162370000000     0.634810000000     0.381073   
C11      C      0.891790000000     0.035880000000     0.532270000000     0.438214   
C12      C      0.169990000000     0.164700000000     0.509070000000     0.457284   
C13      C      0.162420000000     0.035370000000     0.593620000000     0.474299   
C14      C      0.893810000000     0.916720000000     0.625790000000     0.425565   
C15      C      0.052300000000     0.926370000000     0.475640000000     0.389038   
C16      C      0.050860000000     0.054330000000     0.708900000000     0.513874   
C17      C      0.926890000000     0.403410000000     0.993720000000     0.361089   
C18      C      0.090410000000     0.746140000000     0.012130000000     0.489819   
C19      C      0.916430000000     0.552870000000     0.040530000000     0.510655   
C20      C      0.081970000000     0.600180000000     0.889270000000     0.44646    
C21      C      0.200670000000     0.589900000000     0.995880000000     0.485569   
C22      C      0.028750000000     0.542150000000     0.160220000000     0.474653   
C23      C      0.076760000000     0.429730000000     0.015810000000     0.378833   
C24      C      0.198450000000     0.713410000000     0.089280000000     0.499539   
C25      C      0.885850000000     0.419350000000     0.476660000000     0.485578   
C26      C      0.069760000000     0.707080000000     0.457790000000     0.480219   
C27      C      0.890660000000     0.549980000000     0.560700000000     0.515463   
C28      C      0.061800000000     0.538110000000     0.389440000000     0.456748   
C29      C      0.151270000000     0.520180000000     0.515730000000     0.470883   
C30      C      0.025420000000     0.570240000000     0.660160000000     0.469769   
C31      C      0.988940000000     0.373040000000     0.546240000000     0.413383   
C32      C      0.168240000000     0.687890000000     0.572980000000     0.487935   
C33      C      0.428590000000     0.064110000000     0.042620000000     0.500566   
C34      C      0.643590000000     0.948370000000     0.030490000000     0.38958    
C35      C      0.560220000000     0.022050000000     0.937240000000     0.527588   
C36      C      0.437890000000     0.928730000000     0.117540000000     0.457529   
C37      C      0.561440000000     0.026760000000     0.214760000000     0.461197   
C38      C      0.694730000000     0.177010000000     0.992330000000     0.490977   
C39      C      0.576130000000     0.206260000000     0.097770000000     0.500156   
C40      C      0.702550000000     0.054730000000     0.140120000000     0.471747   
C41      C      0.395570000000     0.048940000000     0.565950000000     0.491166   
C42      C      0.576310000000     0.943830000000     0.499970000000     0.458382   
C43      C      0.520810000000     0.048490000000     0.431430000000     0.496673   
C44      C      0.409900000000     0.893840000000     0.631500000000     0.494714   
C45      C      0.553560000000     0.013480000000     0.712460000000     0.477813   
C46      C      0.679450000000     0.175290000000     0.477280000000     0.403855   
C47      C      0.534570000000     0.180770000000     0.620070000000     0.477135   
C48      C      0.681770000000     0.051730000000     0.604080000000     0.47323    
C49      C      0.428550000000     0.395200000000     0.006510000000     0.447619   
C50      C      0.628800000000     0.718620000000     0.975180000000     0.4497     
C51      C      0.426840000000     0.579990000000     0.049970000000     0.536912   
C52      C      0.547080000000     0.540540000000     0.896310000000     0.472127   
C53      C      0.709280000000     0.573230000000     0.952130000000     0.438255   
C54      C      0.529390000000     0.570810000000     0.170050000000     0.510429   
C55      C      0.565710000000     0.429440000000     0.095840000000     0.460838   
C56      C      0.707940000000     0.668500000000     0.077360000000     0.471062   
C57      C      0.413220000000     0.386000000000     0.481680000000     0.3857     
C58      C      0.573970000000     0.717070000000     0.483220000000     0.501283   
C59      C      0.385210000000     0.523340000000     0.561130000000     0.473287   
C60      C      0.543360000000     0.560560000000     0.401710000000     0.46414    
C61      C      0.651920000000     0.523840000000     0.495080000000     0.555517   
C62      C      0.515330000000     0.548820000000     0.668410000000     0.481337   
C63      C      0.488010000000     0.387510000000     0.601050000000     0.383246   
C64      C      0.665200000000     0.694280000000     0.600200000000     0.4793     
C65      C      0.512810000000     0.490730000000     0.752470000000     0.0448692  
C66      C      0.523320000000     0.595560000000     0.756140000000     0.0665059  
C67      C      0.515680000000     0.486910000000     0.810370000000     0.0372855  
C68      C      0.527020000000     0.592400000000     0.814690000000    -0.00157346 
C69      C      0.522380000000     0.642620000000     0.845670000000     0.309296   
C70      C      0.567820000000     0.625450000000     0.257680000000     0.0416415  
C71      C      0.490420000000     0.512120000000     0.255280000000     0.0668929  
C72      C      0.569330000000     0.621980000000     0.316140000000     0.031295   
C73      C      0.489570000000     0.508610000000     0.313640000000    -0.00950195 
C74      C      0.440560000000     0.444710000000     0.338360000000     0.307      
C75      C      0.633010000000     0.833660000000     0.466980000000     0.0480106  
C76      C      0.517310000000     0.774560000000     0.464160000000     0.058538   
C77      C      0.632560000000     0.892750000000     0.469060000000     0.0343652  
C78      C      0.515980000000     0.832830000000     0.467220000000    -0.00947252 
C79      C      0.449580000000     0.826870000000     0.462660000000     0.307095   
C80      C      0.573920000000     0.295610000000     0.626300000000     0.0471425  
C81      C      0.461520000000     0.221030000000     0.633960000000     0.0661898  
C82      C      0.561110000000     0.347720000000     0.623100000000     0.0369119  
C83      C      0.447850000000     0.273250000000     0.631620000000    -0.0108932  
C84      C      0.378940000000     0.256240000000     0.638220000000     0.308378   
C85      C      0.588120000000     0.984500000000     0.800070000000     0.0425008  
C86      C      0.503120000000     0.009710000000     0.794130000000     0.0709694  
C87      C      0.587820000000     0.983890000000     0.858800000000     0.0367064  
C88      C      0.498130000000     0.002270000000     0.851750000000    -0.00623092 
C89      C      0.436890000000     0.990340000000     0.876210000000     0.305879   
C90      C      0.537340000000     0.980760000000     0.305650000000     0.0503832  
C91      C      0.522520000000     0.070370000000     0.280380000000     0.0710188  
C92      C      0.525750000000     0.986050000000     0.360680000000     0.044594   
C93      C      0.502730000000     0.070620000000     0.334610000000    -0.00901304 
C94      C      0.478380000000     0.115930000000     0.345180000000     0.297743   
C95      C      0.586460000000     0.843580000000     0.990980000000     0.0332747  
C96      C      0.701920000000     0.898270000000     0.996200000000     0.0537707  
C97      C      0.583680000000     0.786810000000     0.974980000000     0.0311588  
C98      C      0.699480000000     0.839620000000     0.979540000000    -0.00154589 
C99      C      0.761990000000     0.844080000000     0.965510000000     0.297985   
C100     C      0.518520000000     0.317420000000     0.126010000000     0.0458132  
C101     C      0.632010000000     0.380440000000     0.111310000000     0.0607897  
C102     C      0.521550000000     0.259830000000     0.123540000000     0.0422644  
C103     C      0.636340000000     0.322860000000     0.110910000000    -0.00452884 
C104     C      0.702700000000     0.329630000000     0.107460000000     0.295111   
C105     C      0.771270000000     0.352980000000     0.462650000000     0.0539471  
C106     C      0.839790000000     0.314500000000     0.436820000000     0.0667973  
C107     C      0.718060000000     0.288750000000     0.463030000000     0.0358591  
C108     C      0.786880000000     0.248840000000     0.439440000000    -0.00984374 
C109     C      0.797710000000     0.196000000000     0.420640000000     0.302338   
C110     C      0.282290000000     0.731650000000     0.590880000000     0.0405517  
C111     C      0.231050000000     0.781750000000     0.631620000000     0.0633501  
C112     C      0.343460000000     0.783850000000     0.606470000000     0.0372207  
C113     C      0.293390000000     0.832440000000     0.651900000000    -0.00216641 
C114     C      0.294990000000     0.877230000000     0.693840000000     0.314806   
C115     C      0.825160000000     0.592560000000     0.526220000000     0.0534436  
C116     C      0.774140000000     0.479210000000     0.548490000000     0.0621934  
C117     C      0.766290000000     0.584570000000     0.504650000000     0.0484076  
C118     C      0.714670000000     0.469630000000     0.521290000000    -0.00794326 
C119     C      0.663080000000     0.401750000000     0.505970000000     0.302797   
C120     C      0.211850000000     0.476720000000     0.569740000000     0.0464306  
C121     C      0.253860000000     0.540460000000     0.488270000000     0.0632929  
C122     C      0.271000000000     0.475280000000     0.579620000000     0.0392824  
C123     C      0.312100000000     0.538910000000     0.497170000000    -0.000278831
C124     C      0.359200000000     0.566430000000     0.451400000000     0.309954   
C125     C      0.057710000000     0.539740000000     0.806290000000     0.0434066  
C126     C      0.067260000000     0.644160000000     0.801070000000     0.0630961  
C127     C      0.044040000000     0.533120000000     0.748970000000     0.0353437  
C128     C      0.050640000000     0.636820000000     0.743280000000    -0.0030808  
C129     C      0.042920000000     0.690010000000     0.714940000000     0.301988   
C130     C      0.011120000000     0.477760000000     0.246030000000     0.0406378  
C131     C      0.087170000000     0.591620000000     0.243910000000     0.0615627  
C132     C      0.021460000000     0.477120000000     0.304770000000     0.0370081  
C133     C      0.099990000000     0.590940000000     0.301340000000    -0.00363199 
C134     C      0.158280000000     0.650850000000     0.325430000000     0.308438   
C135     C      0.755090000000     0.291860000000     0.967420000000     0.0435138  
C136     C      0.809730000000     0.231430000000     0.980040000000     0.066262   
C137     C      0.815840000000     0.350390000000     0.963000000000     0.0343295  
C138     C      0.870450000000     0.289760000000     0.975460000000    -0.0028736  
C139     C      0.929870000000     0.284730000000     0.970360000000     0.298991   
C140     C      0.312020000000     0.757540000000     0.103920000000     0.0448545  
C141     C      0.263200000000     0.809740000000     0.144830000000     0.0702303  
C142     C      0.372730000000     0.814140000000     0.108370000000     0.0341977  
C143     C      0.326060000000     0.867260000000     0.152120000000     8.01936e-05
C144     C      0.331350000000     0.920690000000     0.186140000000     0.308227   
C145     C      0.805760000000     0.499980000000     0.003680000000     0.0412076  
C146     C      0.876730000000     0.612880000000     0.985680000000     0.062434   
C147     C      0.753900000000     0.504890000000     0.977100000000     0.0386155  
C148     C      0.826340000000     0.616360000000     0.953750000000    -0.00904288 
C149     C      0.843770000000     0.674600000000     0.916170000000     0.308559   
C150     C      0.373400000000     0.631990000000     0.000910000000     0.0475043  
C151     C      0.317000000000     0.546800000000     0.066490000000     0.0677376  
C152     C      0.315530000000     0.633420000000     0.986490000000     0.0353936  
C153     C      0.262200000000     0.554890000000     0.058330000000    -0.00550589 
C154     C      0.214510000000     0.528020000000     0.103470000000     0.313517   
C155     C      0.781480000000     0.856650000000     0.652420000000     0.0390247  
C156     C      0.837460000000     0.800540000000     0.637460000000     0.0557663  
C157     C      0.721060000000     0.797170000000     0.646750000000     0.0360898  
C158     C      0.777570000000     0.740570000000     0.634320000000    -0.00487091 
C159     C      0.778910000000     0.677810000000     0.637200000000     0.306795   
C160     C      0.341950000000     0.269000000000     0.470570000000     0.0385035  
C161     C      0.297330000000     0.337000000000     0.480230000000     0.066026   
C162     C      0.279140000000     0.213050000000     0.477460000000     0.0412767  
C163     C      0.234360000000     0.281600000000     0.487090000000    -0.00467275 
C164     C      0.178490000000     0.293870000000     0.488130000000     0.304654   
C165     C      0.843050000000     0.100080000000     0.551560000000     0.0523476  
C166     C      0.783710000000     0.985180000000     0.564700000000     0.0668705  
C167     C      0.792000000000     0.104630000000     0.574000000000     0.0413455  
C168     C      0.736130000000     0.990020000000     0.592710000000    -0.00514952 
C169     C      0.685980000000     0.929310000000     0.621020000000     0.305041   
C170     C      0.238350000000     0.035350000000     0.535930000000     0.0485955  
C171     C      0.257070000000     0.040270000000     0.633760000000     0.0818318  
C172     C      0.300550000000     0.045260000000     0.529270000000     0.0336775  
C173     C      0.317560000000     0.044800000000     0.628160000000    -0.011743   
C174     C      0.357480000000     0.053930000000     0.681280000000     0.330277   
C175     C      0.119670000000     0.881640000000     0.454130000000     0.0418373  
C176     C      0.004180000000     0.816830000000     0.447590000000     0.0579107  
C177     C      0.124230000000     0.824700000000     0.449200000000     0.0332691  
C178     C      0.008590000000     0.761510000000     0.436040000000    -0.00997612 
C179     C      0.948850000000     0.702930000000     0.411790000000     0.31203    
C180     C      0.050400000000     0.265610000000     0.589060000000     0.0400158  
C181     C      0.950280000000     0.226410000000     0.632850000000     0.0592447  
C182     C      0.042480000000     0.313820000000     0.561090000000     0.0296413  
C183     C      0.943880000000     0.278160000000     0.607480000000    -0.0110806  
C184     C      0.883320000000     0.280240000000     0.617370000000     0.297856   
C185     C      0.002150000000     0.007730000000     0.796030000000     0.0471983  
C186     C      0.114410000000     0.088460000000     0.792960000000     0.067665   
C187     C      0.006870000000     0.009820000000     0.854480000000     0.0390787  
C188     C      0.118930000000     0.093570000000     0.850700000000    -0.00255398 
C189     C      0.185870000000     0.138520000000     0.875200000000     0.309124   
C190     C      0.040570000000     0.020250000000     0.298180000000     0.0388088  
C191     C      0.050420000000     0.125050000000     0.300920000000     0.0671425  
C192     C      0.009840000000     0.002860000000     0.348100000000     0.0369026  
C193     C      0.022660000000     0.109240000000     0.353420000000     0.00223705 
C194     C      0.009050000000     0.156930000000     0.379780000000     0.304259   
C195     C      0.820680000000     0.727010000000     0.053150000000     0.0538332  
C196     C      0.784740000000     0.766240000000     0.122690000000     0.0681389  
C197     C      0.879450000000     0.788170000000     0.050400000000     0.026581   
C198     C      0.845710000000     0.824740000000     0.124380000000    -0.0112833  
C199     C      0.862260000000     0.863950000000     0.175830000000     0.31794    
C200     C      0.282740000000     0.310880000000     0.090130000000     0.0469519  
C201     C      0.317120000000     0.235450000000     0.074250000000     0.0530254  
C202     C      0.332880000000     0.357890000000     0.057610000000     0.0130618  
C203     C      0.366680000000     0.281860000000     0.039790000000    -0.0114293  
C204     C      0.401360000000     0.258010000000     0.006510000000     0.304071   
C205     C      0.772400000000     0.015760000000     0.178880000000     0.0468548  
C206     C      0.818310000000     0.125380000000     0.145930000000     0.069923   
C207     C      0.834300000000     0.021290000000     0.179800000000     0.0371423  
C208     C      0.880950000000     0.131970000000     0.149230000000     0.00307669 
C209     C      0.939160000000     0.199420000000     0.150040000000     0.302246   
C210     C      0.332880000000     0.058880000000     0.071260000000     0.0599336  
C211     C      0.333910000000     0.029090000000     0.979460000000     0.0669246  
C212     C      0.269450000000     0.045640000000     0.060950000000     0.0330581  
C213     C      0.267170000000     0.011850000000     0.969360000000     0.00495266 
C214     C      0.236390000000     0.991670000000     0.912000000000     0.298717   
C215     C      0.041640000000     0.829870000000     0.106210000000     0.047438   
C216     C      0.154500000000     0.897010000000     0.094960000000     0.0666547  
C217     C      0.040100000000     0.783950000000     0.070700000000     0.0243812  
C218     C      0.153570000000     0.852960000000     0.056530000000     0.00410456 
C219     C      0.215260000000     0.873360000000     0.027950000000     0.304096   
C220     C      0.089210000000     0.291590000000     0.069070000000     0.0672346  
C221     C      0.141220000000     0.323720000000     0.983390000000     0.0646984  
C222     C      0.084990000000     0.348130000000     0.068790000000     0.0351531  
C223     C      0.133160000000     0.378630000000     0.980570000000    -0.0202651  
C224     C      0.159140000000     0.423370000000     0.931150000000     0.305836   
Co1      Co     0.067070000000     0.150580000000     0.111640000000     1.11187    
Co2      Co     0.080680000000     0.003760000000     0.038890000000     0.988103   
Co3      Co     0.151770000000     0.126660000000     0.030730000000     1.05727    
Co4      Co     0.010360000000     0.997820000000     0.146660000000     1.12981    
Co5      Co     0.072390000000     0.025970000000     0.515320000000     1.12088    
Co6      Co     0.978320000000     0.061820000000     0.613120000000     1.15269    
Co7      Co     0.952440000000     0.952340000000     0.526300000000     0.93169    
Co8      Co     0.109300000000     0.122600000000     0.609540000000     1.0439     
Co9      Co     0.060750000000     0.514470000000     0.992450000000     0.853882   
Co10     Co     0.047850000000     0.646290000000     0.078040000000     1.21963    
Co11     Co     0.000620000000     0.489840000000     0.045220000000     0.763227   
Co12     Co     0.150650000000     0.670430000000     0.981860000000     1.10488    
Co13     Co     0.018440000000     0.471210000000     0.500780000000     1.04666    
Co14     Co     0.022440000000     0.633860000000     0.549150000000     1.16733    
Co15     Co     0.955000000000     0.477550000000     0.579680000000     0.984464   
Co16     Co     0.120360000000     0.618610000000     0.478290000000     1.11744    
Co17     Co     0.523610000000     0.078250000000     0.134550000000     1.11373    
Co18     Co     0.638650000000     0.045070000000     0.044450000000     1.04584    
Co19     Co     0.552730000000     0.117540000000     0.004650000000     1.178      
Co20     Co     0.565990000000     0.968150000000     0.113680000000     0.916306   
Co21     Co     0.475680000000     0.034160000000     0.639780000000     1.18702    
Co22     Co     0.617810000000     0.076630000000     0.524770000000     1.08113    
Co23     Co     0.532990000000     0.123780000000     0.522360000000     0.951908   
Co24     Co     0.536520000000     0.955690000000     0.599080000000     1.1326     
Co25     Co     0.567800000000     0.478200000000     0.993350000000     0.999092   
Co26     Co     0.568800000000     0.646400000000     0.062300000000     1.1167     
Co27     Co     0.471880000000     0.485350000000     0.075460000000     1.14424    
Co28     Co     0.640250000000     0.605270000000     0.985460000000     1.03877    
Co29     Co     0.517590000000     0.473680000000     0.504270000000     0.875006   
Co30     Co     0.518650000000     0.629250000000     0.568770000000     1.15432    
Co31     Co     0.474130000000     0.475420000000     0.570440000000     0.83533    
Co32     Co     0.629930000000     0.634820000000     0.498190000000     1.27198    
H1       H      0.513930000000     0.443410000000     0.829590000000     0.0474022  
H2       H      0.506510000000     0.449050000000     0.729810000000     0.0507652  
H3       H      0.523890000000     0.637980000000     0.735680000000     0.0448834  
H4       H      0.476650000000     0.654610000000     0.908660000000     0.190269   
H5       H      0.602260000000     0.667200000000     0.337930000000     0.043405   
H6       H      0.598910000000     0.672530000000     0.237370000000     0.0395311  
H7       H      0.457260000000     0.467560000000     0.232570000000     0.0433236  
H8       H      0.409860000000     0.347100000000     0.343250000000     0.192177   
H9       H      0.679460000000     0.938260000000     0.472180000000     0.0524987  
H10      H      0.680010000000     0.835730000000     0.468280000000     0.0410604  
H11      H      0.471060000000     0.728400000000     0.460240000000     0.0602669  
H12      H      0.352550000000     0.764670000000     0.475310000000     0.191707   
H13      H      0.603110000000     0.397110000000     0.619460000000     0.0542368  
H14      H      0.624380000000     0.306510000000     0.627150000000     0.0515948  
H15      H      0.420870000000     0.171510000000     0.636760000000     0.0471438  
H16      H      0.321160000000     0.279960000000     0.678740000000     0.189895   
H17      H      0.624650000000     0.977530000000     0.883140000000     0.0466894  
H18      H      0.623360000000     0.976210000000     0.780580000000     0.0412409  
H19      H      0.466970000000     0.016800000000     0.769380000000     0.0454947  
H20      H      0.373150000000     0.937600000000     0.936900000000     0.186169   
H21      H      0.533920000000     0.955590000000     0.391350000000     0.0571788  
H22      H      0.550650000000     0.944580000000     0.296100000000     0.0421143  
H23      H      0.520780000000     0.104170000000     0.248820000000     0.0207494  
H24      H      0.406650000000     0.122840000000     0.381110000000     0.184146   
H25      H      0.535000000000     0.745100000000     0.966590000000     0.0398678  
H26      H      0.540000000000     0.842190000000     0.993210000000     0.0491828  
H27      H      0.749080000000     0.942650000000     0.003470000000     0.0579721  
H28      H      0.861090000000     0.896220000000     0.978810000000     0.197162   
H29      H      0.476430000000     0.212750000000     0.127290000000     0.0422688  
H30      H      0.470990000000     0.312720000000     0.130790000000     0.0433439  
H31      H      0.676160000000     0.427950000000     0.105670000000     0.0495869  
H32      H      0.751910000000     0.280830000000     0.098210000000     0.198695   
H33      H      0.670660000000     0.281690000000     0.472210000000     0.0566711  
H34      H      0.763890000000     0.392980000000     0.471740000000     0.0367667  
H35      H      0.887750000000     0.323850000000     0.426100000000     0.0443126  
H36      H      0.886810000000     0.226770000000     0.461260000000     0.173958   
H37      H      0.386300000000     0.782420000000     0.594610000000     0.0440109  
H38      H      0.281360000000     0.692520000000     0.568110000000     0.0452489  
H39      H      0.186910000000     0.781100000000     0.642560000000     0.0513291  
H40      H      0.337120000000     0.920100000000     0.768160000000     0.199722   
H41      H      0.766630000000     0.628800000000     0.489020000000     0.0424817  
H42      H      0.867770000000     0.641930000000     0.525550000000     0.0546112  
H43      H      0.777860000000     0.436900000000     0.563300000000     0.0453216  
H44      H      0.594930000000     0.346340000000     0.445910000000     0.19173    
H45      H      0.276610000000     0.450670000000     0.617110000000     0.0460072  
H46      H      0.173430000000     0.451840000000     0.599240000000     0.0443795  
H47      H      0.248170000000     0.564660000000     0.450420000000     0.0580085  
H48      H      0.424310000000     0.555480000000     0.409490000000     0.198802   
H49      H      0.036150000000     0.488100000000     0.731180000000     0.0528441  
H50      H      0.059420000000     0.499660000000     0.829080000000     0.0615983  
H51      H      0.075520000000     0.688380000000     0.820830000000     0.0535691  
H52      H      0.089460000000     0.788670000000     0.699600000000     0.196373   
H53      H      0.992770000000     0.431310000000     0.327670000000     0.0534754  
H54      H      0.976020000000     0.432320000000     0.225540000000     0.0521334  
H55      H      0.116890000000     0.637340000000     0.221050000000     0.050384   
H56      H      0.211790000000     0.750720000000     0.319510000000     0.192633   
H57      H      0.816550000000     0.396610000000     0.957850000000     0.0422991  
H58      H      0.710850000000     0.295200000000     0.964470000000     0.0414335  
H59      H      0.809200000000     0.185100000000     0.985050000000     0.0565715  
H60      H      0.009600000000     0.316150000000     0.924160000000     0.189279   
H61      H      0.413910000000     0.811690000000     0.093720000000     0.0416617  
H62      H      0.309550000000     0.715070000000     0.085600000000     0.0455794  
H63      H      0.220080000000     0.808940000000     0.158920000000     0.0433005  
H64      H      0.382420000000     0.981500000000     0.250450000000     0.185107   
H65      H      0.705530000000     0.461000000000     0.976790000000     0.0404257  
H66      H      0.796060000000     0.453090000000     0.021730000000     0.0453781  
H67      H      0.925690000000     0.655590000000     0.986280000000     0.0562445  
H68      H      0.817340000000     0.705370000000     0.843760000000     0.19993    
H69      H      0.316670000000     0.666690000000     0.953150000000     0.0446542  
H70      H      0.417270000000     0.665010000000     0.979010000000     0.031574   
H71      H      0.317240000000     0.513690000000     0.099560000000     0.0380679  
H72      H      0.163690000000     0.549920000000     0.155050000000     0.190244   
H73      H      0.676020000000     0.797730000000     0.650760000000     0.0529105  
H74      H      0.781310000000     0.901160000000     0.661150000000     0.0475459  
H75      H      0.883100000000     0.800180000000     0.635680000000     0.0536904  
H76      H      0.725960000000     0.580070000000     0.656440000000     0.192586   
H77      H      0.275170000000     0.165180000000     0.477160000000     0.0454743  
H78      H      0.383100000000     0.261730000000     0.465440000000     0.0460203  
H79      H      0.302470000000     0.385530000000     0.479700000000     0.0650536  
H80      H      0.082150000000     0.258000000000     0.466260000000     0.19221    
H81      H      0.795920000000     0.152480000000     0.573730000000     0.051983   
H82      H      0.885510000000     0.144880000000     0.537290000000     0.0411765  
H83      H      0.778530000000     0.936960000000     0.561790000000     0.0401162  
H84      H      0.641390000000     0.892320000000     0.694220000000     0.183143   
H85      H      0.316290000000     0.047730000000     0.487320000000     0.0395197  
H86      H      0.208890000000     0.033310000000     0.498910000000     0.0470096  
H87      H      0.240840000000     0.040910000000     0.674920000000     0.0430213  
H88      H      0.381670000000     0.098310000000     0.756550000000     0.200658   
H89      H      0.172440000000     0.829440000000     0.453210000000     0.0459807  
H90      H      0.164480000000     0.928370000000     0.460260000000     0.0394552  
H91      H      0.956290000000     0.813080000000     0.445420000000     0.0407967  
H92      H      0.917210000000     0.623450000000     0.362840000000     0.193523   
H93      H      0.080650000000     0.348010000000     0.533910000000     0.0547949  
H94      H      0.093950000000     0.263780000000     0.580800000000     0.0547091  
H95      H      0.912000000000     0.190400000000     0.659030000000     0.0528363  
H96      H      0.814300000000     0.258150000000     0.673780000000     0.193862   
H97      H      0.963350000000     0.977640000000     0.877340000000     0.0499015  
H98      H      0.955060000000     0.974310000000     0.775620000000     0.0495793  
H99      H      0.158330000000     0.119620000000     0.770050000000     0.046929   
H100     H      0.262590000000     0.232530000000     0.873270000000     0.195418   
H101     H      0.996480000000     0.954600000000     0.365850000000     0.041258   
H102     H      0.046760000000     0.983430000000     0.278460000000     0.0357015  
H103     H      0.063610000000     0.172480000000     0.281500000000     0.0538159  
H104     H      0.959490000000     0.168060000000     0.440370000000     0.19557    
H105     H      0.914380000000     0.795340000000     0.019880000000     0.0579561  
H106     H      0.812650000000     0.689490000000     0.024780000000     0.0501814  
H107     H      0.748420000000     0.757890000000     0.152420000000     0.0417194  
H108     H      0.934540000000     0.916090000000     0.233980000000     0.176899   
H109     H      0.336120000000     0.405300000000     0.052520000000     0.0403181  
H110     H      0.249450000000     0.323980000000     0.106940000000     0.0420625  
H111     H      0.310620000000     0.186450000000     0.078460000000     0.0421372  
H112     H      0.438320000000     0.264390000000     0.930990000000     0.187852   
H113     H      0.838140000000     0.978740000000     0.192430000000     0.0577611  
H114     H      0.730890000000     0.968770000000     0.190900000000     0.0457137  
H115     H      0.813510000000     0.167940000000     0.134250000000     0.0552038  
H116     H      0.028300000000     0.256820000000     0.189460000000     0.182779   
H117     H      0.247850000000     0.056650000000     0.094210000000     0.0603354  
H118     H      0.356000000000     0.077940000000     0.111890000000     0.044001   
H119     H      0.360330000000     0.026240000000     0.945830000000     0.0557329  
H120     H      0.255810000000     0.988750000000     0.831330000000     0.198421   
H121     H      0.993080000000     0.739230000000     0.064160000000     0.0357304  
H122     H      0.996020000000     0.819020000000     0.123710000000     0.0462328  
H123     H      0.200400000000     0.939070000000     0.107710000000     0.0477329  
H124     H      0.253030000000     0.877430000000     0.953300000000     0.179639   
H125     H      0.061930000000     0.355230000000     0.103280000000     0.0659125  
H126     H      0.071220000000     0.257560000000     0.104100000000     0.00359026 
H127     H      0.164230000000     0.314650000000     0.949900000000     0.0326692  
H128     H      0.118480000000     0.352850000000     0.871770000000     0.173403   
N1       N      0.518090000000     0.545600000000     0.725450000000    -0.190716   
N2       N      0.526950000000     0.539180000000     0.841350000000    -0.168784   
N3       N      0.529890000000     0.570040000000     0.227370000000    -0.198427   
N4       N      0.532250000000     0.563340000000     0.344590000000    -0.170888   
N5       N      0.575310000000     0.774840000000     0.469790000000    -0.199554   
N6       N      0.574730000000     0.891440000000     0.475890000000    -0.172243   
N7       N      0.523760000000     0.232160000000     0.627830000000    -0.191924   
N8       N      0.497840000000     0.336740000000     0.621240000000    -0.150794   
N9       N      0.549520000000     0.003130000000     0.768790000000    -0.191312   
N10      N      0.546460000000     0.998690000000     0.883940000000    -0.18042    
N11      N      0.540380000000     0.025930000000     0.266660000000    -0.192516   
N12      N      0.510330000000     0.031920000000     0.376010000000    -0.170119   
N13      N      0.645080000000     0.898050000000     0.005260000000    -0.170724   
N14      N      0.639120000000     0.781980000000     0.974670000000    -0.173693   
N15      N      0.572470000000     0.376970000000     0.114420000000    -0.187535   
N16      N      0.579130000000     0.262790000000     0.112550000000    -0.177475   
N17      N      0.832650000000     0.364890000000     0.454080000000    -0.19217    
N18      N      0.727280000000     0.236290000000     0.458140000000    -0.153196   
N19      N      0.226320000000     0.733240000000     0.599200000000    -0.192878   
N20      N      0.349580000000     0.836830000000     0.633060000000    -0.173679   
N21      N      0.829250000000     0.540400000000     0.548570000000    -0.197296   
N22      N      0.710040000000     0.523990000000     0.504310000000    -0.187499   
N23      N      0.204840000000     0.511760000000     0.525150000000    -0.187009   
N24      N      0.322410000000     0.509800000000     0.545230000000    -0.169836   
N25      N      0.069370000000     0.595130000000     0.832470000000    -0.181471   
N26      N      0.039920000000     0.580890000000     0.716810000000    -0.170851   
N27      N      0.041340000000     0.536020000000     0.216390000000    -0.18942    
N28      N      0.062540000000     0.534550000000     0.332450000000    -0.165658   
N29      N      0.752550000000     0.232980000000     0.979190000000    -0.191871   
N30      N      0.873100000000     0.349460000000     0.971210000000    -0.146073   
N31      N      0.256540000000     0.758190000000     0.115550000000    -0.194523   
N32      N      0.379220000000     0.871350000000     0.126940000000    -0.166038   
N33      N      0.865610000000     0.555110000000     0.011670000000    -0.194196   
N34      N      0.762980000000     0.564630000000     0.957020000000    -0.161991   
N35      N      0.372620000000     0.586110000000     0.038640000000    -0.203943   
N36      N      0.259140000000     0.593470000000     0.013900000000    -0.166841   
N37      N      0.838450000000     0.858940000000     0.640480000000    -0.182295   
N38      N      0.719520000000     0.741650000000     0.629890000000    -0.172526   
N39      N      0.351470000000     0.330900000000     0.475250000000    -0.166172   
N40      N      0.226330000000     0.219180000000     0.489750000000    -0.166371   
N41      N      0.838740000000     0.040270000000     0.546900000000    -0.183912   
N42      N      0.737750000000     0.049650000000     0.593830000000    -0.166797   
N43      N      0.217640000000     0.033340000000     0.588060000000    -0.192115   
N44      N      0.339050000000     0.047940000000     0.574930000000    -0.177405   
N45      N      0.059450000000     0.875930000000     0.458400000000    -0.173564   
N46      N      0.068290000000     0.764040000000     0.444900000000    -0.175871   
N47      N      0.002100000000     0.219070000000     0.621570000000    -0.171847   
N48      N      0.989840000000     0.320200000000     0.570230000000    -0.16179    
N49      N      0.055850000000     0.048040000000     0.765630000000    -0.197936   
N50      N      0.064090000000     0.054770000000     0.881610000000    -0.170487   
N51      N      0.059440000000     0.080620000000     0.273950000000    -0.195562   
N52      N      0.004240000000     0.048140000000     0.376860000000    -0.180103   
N53      N      0.771620000000     0.718510000000     0.086080000000    -0.190152   
N54      N      0.889980000000     0.838750000000     0.083230000000    -0.162532   
N55      N      0.272960000000     0.248720000000     0.096510000000    -0.190045   
N56      N      0.375800000000     0.344450000000     0.033100000000    -0.175915   
N57      N      0.763920000000     0.066010000000     0.157120000000    -0.188009   
N58      N      0.886810000000     0.076970000000     0.159390000000    -0.173809   
N59      N      0.365250000000     0.050080000000     0.030940000000    -0.190966   
N60      N      0.234500000000     0.017650000000     0.012170000000    -0.165406   
N61      N      0.097620000000     0.889380000000     0.113590000000    -0.18961    
N62      N      0.095240000000     0.795580000000     0.044370000000    -0.181066   
N63      N      0.114060000000     0.278460000000     0.025010000000    -0.204689   
N64      N      0.101190000000     0.388150000000     0.022480000000    -0.146575   
O1       O      0.057330000000     0.169840000000     0.038500000000    -0.461624   
O2       O      0.994370000000     0.914890000000     0.050820000000    -0.358934   
O3       O      0.110800000000     0.111530000000     0.960920000000    -0.45245    
O4       O      0.956460000000     0.034750000000     0.166800000000    -0.435529   
O5       O      0.037470000000     0.008450000000     0.969370000000    -0.407661   
O6       O      0.976900000000     0.113950000000     0.108040000000    -0.440581   
O7       O      0.941200000000     0.948310000000     0.097770000000    -0.440008   
O8       O      0.156610000000     0.212340000000     0.021750000000    -0.425125   
O9       O      0.070580000000     0.133700000000     0.190490000000    -0.4477     
O10      O      0.119740000000     0.962220000000     0.000900000000    -0.358749   
O11      O      0.197710000000     0.141300000000     0.099470000000    -0.439338   
O12      O      0.042000000000     0.935130000000     0.146740000000    -0.422921   
O13      O      0.127840000000     0.997240000000     0.106090000000    -0.412634   
O14      O      0.166170000000     0.207030000000     0.120130000000    -0.41458    
O15      O      0.080550000000     0.047600000000     0.195540000000    -0.467022   
O16      O      0.176290000000     0.067000000000     0.017800000000    -0.531672   
O17      O      0.061770000000     0.064750000000     0.079830000000    -0.520138   
O18      O      0.044980000000     0.071330000000     0.463860000000    -0.44308    
O19      O      0.949770000000     0.108970000000     0.648140000000    -0.40516    
O20      O      0.886460000000     0.979550000000     0.529180000000    -0.401138   
O21      O      0.132310000000     0.171110000000     0.539950000000    -0.412082   
O22      O      0.948710000000     0.082930000000     0.543350000000    -0.423075   
O23      O      0.158730000000     0.106620000000     0.503420000000    -0.392668   
O24      O      0.053460000000     0.159700000000     0.621430000000    -0.489971   
O25      O      0.958780000000     0.980140000000     0.450670000000    -0.459473   
O26      O      0.110240000000     0.992770000000     0.568770000000    -0.434181   
O27      O      0.897310000000     0.972860000000     0.627680000000    -0.371344   
O28      O      0.007100000000     0.913110000000     0.510300000000    -0.420439   
O29      O      0.100810000000     0.088970000000     0.681790000000    -0.473486   
O30      O      0.996600000000     0.035610000000     0.684120000000    -0.455083   
O31      O      0.091900000000     0.986380000000     0.461260000000    -0.413427   
O32      O      0.169220000000     0.090860000000     0.604490000000    -0.421946   
O33      O      0.935940000000     0.913050000000     0.598380000000    -0.407907   
O34      O      0.030320000000     0.038330000000     0.571690000000    -0.629786   
O35      O      0.962650000000     0.457030000000     0.964910000000    -0.364844   
O36      O      0.041990000000     0.690800000000     0.015500000000    -0.489551   
O37      O      0.927840000000     0.507390000000     0.032680000000    -0.384536   
O38      O      0.100060000000     0.653750000000     0.913710000000    -0.428173   
O39      O      0.959050000000     0.602910000000     0.065600000000    -0.488839   
O40      O      0.076910000000     0.550770000000     0.917640000000    -0.372136   
O41      O      0.140000000000     0.745290000000     0.998030000000    -0.421001   
O42      O      0.939740000000     0.403040000000     0.046180000000    -0.336552   
O43      O      0.150090000000     0.554750000000     0.020900000000    -0.398561   
O44      O      0.046800000000     0.599160000000     0.140700000000    -0.490565   
O45      O      0.063950000000     0.453620000000     0.057500000000    -0.369848   
O46      O      0.202340000000     0.688070000000     0.046050000000    -0.472801   
O47      O      0.143220000000     0.706580000000     0.100240000000    -0.43996    
O48      O      0.067160000000     0.447500000000     0.967510000000    -0.361577   
O49      O      0.195490000000     0.625280000000     0.957580000000    -0.416415   
O50      O      0.002110000000     0.493250000000     0.127610000000    -0.35704    
O51      O      0.065610000000     0.590480000000     0.026550000000    -0.521231   
O52      O      0.940700000000     0.444580000000     0.455790000000    -0.431632   
O53      O      0.020050000000     0.658600000000     0.475390000000    -0.45399    
O54      O      0.902840000000     0.516140000000     0.596080000000    -0.428479   
O55      O      0.075570000000     0.592200000000     0.409970000000    -0.440051   
O56      O      0.936420000000     0.591740000000     0.533060000000    -0.497101   
O57      O      0.050520000000     0.489560000000     0.422520000000    -0.363683   
O58      O      0.121500000000     0.704660000000     0.466420000000    -0.420115   
O59      O      0.885590000000     0.430220000000     0.526980000000    -0.448489   
O60      O      0.101140000000     0.491780000000     0.544050000000    -0.409535   
O61      O      0.018970000000     0.611340000000     0.628160000000    -0.435015   
O62      O      0.981080000000     0.411050000000     0.577200000000    -0.449777   
O63      O      0.168010000000     0.644990000000     0.544230000000    -0.484309   
O64      O      0.117360000000     0.693590000000     0.570000000000    -0.441921   
O65      O      0.003960000000     0.389260000000     0.495620000000    -0.417436   
O66      O      0.150840000000     0.557690000000     0.476900000000    -0.442628   
O67      O      0.015750000000     0.517460000000     0.639540000000    -0.435578   
O68      O      0.028810000000     0.556200000000     0.521030000000    -0.548945   
O69      O      0.455750000000     0.083530000000     0.090490000000    -0.459813   
O70      O      0.691380000000     0.008210000000     0.028810000000    -0.37389    
O71      O      0.548680000000     0.066250000000     0.948550000000    -0.4909     
O72      O      0.479410000000     0.926610000000     0.088300000000    -0.431087   
O73      O      0.590280000000     0.005750000000     0.973240000000    -0.421349   
O74      O      0.453860000000     0.982920000000     0.140490000000    -0.406363   
O75      O      0.588880000000     0.936490000000     0.050170000000    -0.440079   
O76      O      0.461640000000     0.060600000000     0.005750000000    -0.462654   
O77      O      0.584550000000     0.077580000000     0.185260000000    -0.456571   
O78      O      0.694410000000     0.124010000000     0.005150000000    -0.417825   
O79      O      0.552870000000     0.183290000000     0.049930000000    -0.450101   
O80      O      0.652970000000     0.998780000000     0.145110000000    -0.44508    
O81      O      0.695970000000     0.092420000000     0.105440000000    -0.42115    
O82      O      0.581720000000     0.169780000000     0.134740000000    -0.435371   
O83      O      0.543350000000     0.974350000000     0.189670000000    -0.40251    
O84      O      0.642690000000     0.179250000000     0.995420000000    -0.46049    
O85      O      0.571960000000     0.062960000000     0.071390000000    -0.527337   
O86      O      0.405840000000     0.007600000000     0.591050000000    -0.475166   
O87      O      0.627850000000     0.999690000000     0.505610000000    -0.371889   
O88      O      0.493970000000     0.074920000000     0.454430000000    -0.409784   
O89      O      0.446730000000     0.903030000000     0.593160000000    -0.467062   
O90      O      0.567770000000     0.048200000000     0.457910000000    -0.449031   
O91      O      0.428360000000     0.940910000000     0.663690000000    -0.418801   
O92      O      0.527810000000     0.934820000000     0.524960000000    -0.446729   
O93      O      0.442070000000     0.097230000000     0.540880000000    -0.410478   
O94      O      0.544460000000     0.058460000000     0.691630000000    -0.472892   
O95      O      0.689490000000     0.127090000000     0.483330000000    -0.386111   
O96      O      0.572370000000     0.184910000000     0.583440000000    -0.41853    
O97      O      0.628360000000     0.997580000000     0.605570000000    -0.46847    
O98      O      0.676740000000     0.101300000000     0.589150000000    -0.428961   
O99      O      0.495080000000     0.124080000000     0.638150000000    -0.4484     
O100     O      0.544130000000     0.967360000000     0.680960000000    -0.433142   
O101     O      0.624530000000     0.166940000000     0.493370000000    -0.45393    
O102     O      0.535130000000     0.040220000000     0.572690000000    -0.533824   
O103     O      0.481710000000     0.395770000000     0.004860000000    -0.392612   
O104     O      0.574470000000     0.671880000000     0.987710000000    -0.455273   
O105     O      0.420600000000     0.525170000000     0.063560000000    -0.47935    
O106     O      0.588090000000     0.594750000000     0.918520000000    -0.408699   
O107     O      0.483210000000     0.628860000000     0.047360000000    -0.481411   
O108     O      0.533550000000     0.487560000000     0.922560000000    -0.433906   
O109     O      0.673060000000     0.704020000000     0.979180000000    -0.355007   
O110     O      0.436850000000     0.451370000000     0.005820000000    -0.457636   
O111     O      0.655160000000     0.528170000000     0.970310000000    -0.511731   
O112     O      0.558030000000     0.623970000000     0.141600000000    -0.453131   
O113     O      0.511740000000     0.429000000000     0.099310000000    -0.418731   
O114     O      0.695780000000     0.619130000000     0.049920000000    -0.425998   
O115     O      0.662040000000     0.681360000000     0.080560000000    -0.446176   
O116     O      0.604960000000     0.468140000000     0.060830000000    -0.440208   
O117     O      0.714300000000     0.629170000000     0.943500000000    -0.368084   
O118     O      0.498130000000     0.517110000000     0.145290000000    -0.501305   
O119     O      0.556350000000     0.557650000000     0.033800000000    -0.517438   
O120     O      0.466590000000     0.385000000000     0.478010000000    -0.34196    
O121     O      0.522100000000     0.668130000000     0.498470000000    -0.471099   
O122     O      0.397890000000     0.483990000000     0.589790000000    -0.3645     
O123     O      0.589280000000     0.611370000000     0.426000000000    -0.466609   
O124     O      0.432360000000     0.577760000000     0.546700000000    -0.4642     
O125     O      0.511690000000     0.506630000000     0.429350000000    -0.372196   
O126     O      0.625310000000     0.714310000000     0.491400000000    -0.48115    
O127     O      0.418640000000     0.438040000000     0.501440000000    -0.419288   
O128     O      0.596600000000     0.473180000000     0.489850000000    -0.3864     
O129     O      0.508030000000     0.593190000000     0.642820000000    -0.456572   
O130     O      0.433440000000     0.386920000000     0.601550000000    -0.332801   
O131     O      0.673440000000     0.659240000000     0.567330000000    -0.466626   
O132     O      0.610520000000     0.693600000000     0.596480000000    -0.430356   
O133     O      0.533880000000     0.435940000000     0.575170000000    -0.420177   
O134     O      0.652740000000     0.576470000000     0.497990000000    -0.569555   
O135     O      0.517390000000     0.505800000000     0.640990000000    -0.398728   
O136     O      0.542470000000     0.566490000000     0.535990000000    -0.538924   
O137     O      0.484030000000     0.623790000000     0.889890000000    -0.313127   
O138     O      0.550420000000     0.700190000000     0.829820000000    -0.23099    
O139     O      0.441770000000     0.389520000000     0.328070000000    -0.324638   
O140     O      0.397400000000     0.441510000000     0.365970000000    -0.218344   
O141     O      0.396130000000     0.770190000000     0.478560000000    -0.332271   
O142     O      0.442500000000     0.871860000000     0.443190000000    -0.21863    
O143     O      0.365790000000     0.290730000000     0.673240000000    -0.312159   
O144     O      0.333750000000     0.209190000000     0.613800000000    -0.231713   
O145     O      0.415230000000     0.950940000000     0.922010000000    -0.318167   
O146     O      0.404380000000     0.012870000000     0.853630000000    -0.237527   
O147     O      0.423900000000     0.094440000000     0.374250000000    -0.314635   
O148     O      0.505890000000     0.171910000000     0.325520000000    -0.23335    
O149     O      0.819560000000     0.890060000000     0.989610000000    -0.324821   
O150     O      0.762260000000     0.809350000000     0.929540000000    -0.202597   
O151     O      0.709180000000     0.276790000000     0.099990000000    -0.318861   
O152     O      0.752320000000     0.383690000000     0.112610000000    -0.233668   
O153     O      0.853510000000     0.195280000000     0.435700000000    -0.316501   
O154     O      0.756410000000     0.153320000000     0.389960000000    -0.191671   
O155     O      0.336920000000     0.893040000000     0.739060000000    -0.313903   
O156     O      0.255380000000     0.896280000000     0.689630000000    -0.230729   
O157     O      0.627310000000     0.390500000000     0.457310000000    -0.309843   
O158     O      0.657030000000     0.355180000000     0.534810000000    -0.250748   
O159     O      0.394320000000     0.538290000000     0.439500000000    -0.305247   
O160     O      0.364820000000     0.613600000000     0.423280000000    -0.227192   
O161     O      0.093430000000     0.752750000000     0.716840000000    -0.329431   
O162     O      0.989900000000     0.677860000000     0.692890000000    -0.214606   
O163     O      0.173860000000     0.711250000000     0.304940000000    -0.332644   
O164     O      0.193320000000     0.645460000000     0.362590000000    -0.237821   
O165     O      0.973160000000     0.321990000000     0.931630000000    -0.309815   
O166     O      0.937580000000     0.244090000000     0.998230000000    -0.213636   
O167     O      0.379140000000     0.947780000000     0.226810000000    -0.32047    
O168     O      0.290360000000     0.937800000000     0.179550000000    -0.23734    
O169     O      0.806560000000     0.668460000000     0.869160000000    -0.308367   
O170     O      0.893290000000     0.727460000000     0.926310000000    -0.2307     
O171     O      0.193520000000     0.565770000000     0.124860000000    -0.318207   
O172     O      0.197550000000     0.473450000000     0.123830000000    -0.23368    
O173     O      0.726100000000     0.621280000000     0.654180000000    -0.314868   
O174     O      0.828500000000     0.677480000000     0.626010000000    -0.233781   
O175     O      0.118710000000     0.250370000000     0.465830000000    -0.306552   
O176     O      0.187230000000     0.344940000000     0.507320000000    -0.242059   
O177     O      0.674090000000     0.931120000000     0.674920000000    -0.326404   
O178     O      0.655020000000     0.878020000000     0.595450000000    -0.25469    
O179     O      0.357290000000     0.092280000000     0.721210000000    -0.342535   
O180     O      0.387600000000     0.024990000000     0.690740000000    -0.286905   
O181     O      0.955180000000     0.661400000000     0.379370000000    -0.311124   
O182     O      0.894020000000     0.693550000000     0.419260000000    -0.24446    
O183     O      0.854340000000     0.258500000000     0.666650000000    -0.331421   
O184     O      0.858040000000     0.299010000000     0.580530000000    -0.231937   
O185     O      0.218630000000     0.202370000000     0.858530000000    -0.331483   
O186     O      0.212430000000     0.117370000000     0.908440000000    -0.22566    
O187     O      0.969090000000     0.137890000000     0.422980000000    -0.314855   
O188     O      0.032520000000     0.213310000000     0.361320000000    -0.224198   
O189     O      0.923660000000     0.892500000000     0.199480000000    -0.361041   
O190     O      0.819020000000     0.865990000000     0.199370000000    -0.248153   
O191     O      0.416850000000     0.280120000000     0.953600000000    -0.320912   
O192     O      0.412930000000     0.215770000000     0.025900000000    -0.241814   
O193     O      0.991570000000     0.212500000000     0.184750000000    -0.330169   
O194     O      0.938210000000     0.243940000000     0.122390000000    -0.220371   
O195     O      0.274450000000     0.001570000000     0.868830000000    -0.323322   
O196     O      0.176920000000     0.965520000000     0.903450000000    -0.202373   
O197     O      0.213510000000     0.864760000000     0.972570000000    -0.30786    
O198     O      0.268260000000     0.901520000000     0.053750000000    -0.235443   
O199     O      0.146680000000     0.399270000000     0.879100000000    -0.312705   
O200     O      0.193580000000     0.482520000000     0.937350000000    -0.20459    


