data_structure

_audit_creation_method RASPA-1.0
_audit_creation_date 2023-6-4
_audit_author_name 'Poobodin Mano'

_cell_length_a    23.3688
_cell_length_b    23.4378
_cell_length_c    24.1773
_cell_angle_alpha 87.1373
_cell_angle_beta  93.8173
_cell_angle_gamma 120.434
_cell_volume      11390.3

_symmetry_cell_setting          triclinic
_symmetry_space_group_name_Hall 'P 1'
_symmetry_space_group_name_H-M  'P 1'
_symmetry_Int_Tables_number     1

_symmetry_equiv_pos_as_xyz 'x,y,z'

loop_
_atom_site_label
_atom_site_type_symbol
_atom_site_fract_x
_atom_site_fract_y
_atom_site_fract_z
_atom_site_charge
C1       C      0.047990000000     0.184270000000     0.974620000000     0.443628   
C2       C      0.883080000000     0.910740000000     0.999880000000     0.489579   
C3       C      0.025760000000     0.028570000000     0.875570000000     0.479057   
C4       C      0.906900000000     0.020190000000     0.094770000000     0.456365   
C5       C      0.060760000000     0.048510000000     0.156170000000     0.461607   
C6       C      0.153920000000     0.015790000000     0.964760000000     0.46931    
C7       C      0.178000000000     0.175390000000     0.045850000000     0.476035   
C8       C      0.007190000000     0.861910000000     0.015300000000     0.40089    
C9       C      0.032550000000     0.034610000000     0.382450000000     0.465378   
C10      C      0.106890000000     0.219990000000     0.559230000000     0.438136   
C11      C      0.924230000000     0.034290000000     0.473620000000     0.443299   
C12      C      0.216000000000     0.225500000000     0.484750000000     0.475884   
C13      C      0.230740000000     0.083400000000     0.522560000000     0.469868   
C14      C      0.951650000000     0.958580000000     0.591650000000     0.460787   
C15      C      0.109070000000     0.958590000000     0.469270000000     0.480379   
C16      C      0.065920000000     0.077580000000     0.653990000000     0.45178    
C17      C      0.924220000000     0.372640000000     0.016610000000     0.480479   
C18      C      0.084640000000     0.680450000000     0.025200000000     0.413709   
C19      C      0.902940000000     0.497370000000     0.101690000000     0.45568    
C20      C      0.076940000000     0.534130000000     0.952830000000     0.502299   
C21      C      0.205080000000     0.560960000000     0.057210000000     0.51578    
C22      C      0.013340000000     0.494190000000     0.213440000000     0.478705   
C23      C      0.029900000000     0.353180000000     0.113430000000     0.473778   
C24      C      0.155140000000     0.667680000000     0.145470000000     0.45677    
C25      C      0.946420000000     0.485820000000     0.518460000000     0.469966   
C26      C      0.121570000000     0.740420000000     0.530940000000     0.499231   
C27      C      0.956530000000     0.591750000000     0.618110000000     0.506031   
C28      C      0.097180000000     0.539870000000     0.433010000000     0.41731    
C29      C      0.208860000000     0.562290000000     0.557450000000     0.487924   
C30      C      0.064040000000     0.566910000000     0.726690000000     0.521635   
C31      C      0.036130000000     0.409660000000     0.585170000000     0.462398   
C32      C      0.224900000000     0.717870000000     0.628540000000     0.493273   
C33      C      0.403340000000     0.035500000000     0.988100000000     0.462142   
C34      C      0.567250000000     0.909480000000     0.991730000000     0.373187   
C35      C      0.543220000000     0.045670000000     0.906770000000     0.489031   
C36      C      0.379320000000     0.914780000000     0.109980000000     0.379386   
C37      C      0.532730000000     0.029560000000     0.182350000000     0.496369   
C38      C      0.684330000000     0.161820000000     0.982580000000     0.465423   
C39      C      0.506350000000     0.158580000000     0.089510000000     0.48078    
C40      C      0.669210000000     0.014210000000     0.095380000000     0.462844   
C41      C      0.448270000000     0.060240000000     0.502830000000     0.499702   
C42      C      0.599830000000     0.970340000000     0.483510000000     0.464575   
C43      C      0.609060000000     0.119380000000     0.397820000000     0.522847   
C44      C      0.451060000000     0.957140000000     0.622260000000     0.433919   
C45      C      0.601980000000     0.070890000000     0.683960000000     0.443339   
C46      C      0.729300000000     0.254590000000     0.486610000000     0.549523   
C47      C      0.538120000000     0.191160000000     0.592920000000     0.464321   
C48      C      0.733800000000     0.066330000000     0.570370000000     0.446168   
C49      C      0.413590000000     0.411590000000     0.036570000000     0.508271   
C50      C      0.552050000000     0.671740000000     0.992560000000     0.466637   
C51      C      0.449930000000     0.605080000000     0.126780000000     0.426767   
C52      C      0.588440000000     0.543760000000     0.928400000000     0.490816   
C53      C      0.696730000000     0.538960000000     0.044980000000     0.522296   
C54      C      0.574720000000     0.569110000000     0.201680000000     0.480483   
C55      C      0.530760000000     0.395650000000     0.119020000000     0.476572   
C56      C      0.676760000000     0.723830000000     0.086950000000     0.452671   
C57      C      0.450980000000     0.450580000000     0.499400000000     0.46739    
C58      C      0.594230000000     0.735010000000     0.520660000000     0.578227   
C59      C      0.441090000000     0.562390000000     0.616380000000     0.510495   
C60      C      0.613940000000     0.570340000000     0.427670000000     0.487212   
C61      C      0.720320000000     0.581720000000     0.551930000000     0.488399   
C62      C      0.576960000000     0.556800000000     0.701470000000     0.535408   
C63      C      0.506250000000     0.395890000000     0.616640000000     0.419838   
C64      C      0.722580000000     0.733990000000     0.609690000000     0.553168   
C65      C      0.543720000000     0.490970000000     0.841620000000     0.0415448  
C66      C      0.635900000000     0.599620000000     0.844550000000     0.016895   
C67      C      0.544060000000     0.492870000000     0.783810000000     0.0548078  
C68      C      0.636160000000     0.602190000000     0.786670000000     0.150179   
C69      C      0.621430000000     0.629820000000     0.284530000000     0.0389078  
C70      C      0.593060000000     0.518110000000     0.283260000000     0.0156276  
C71      C      0.629150000000     0.628510000000     0.342240000000     0.0453172  
C72      C      0.604620000000     0.517570000000     0.341160000000     0.139635   
C73      C      0.625410000000     0.890450000000     0.453130000000     0.0375605  
C74      C      0.552440000000     0.864660000000     0.525050000000     0.0162772  
C75      C      0.620750000000     0.828510000000     0.461460000000     0.0509828  
C76      C      0.550170000000     0.805100000000     0.535590000000     0.146607   
C77      C      0.459690000000     0.224410000000     0.610780000000     0.0416654  
C78      C      0.572790000000     0.289720000000     0.638660000000     0.0142597  
C79      C      0.450100000000     0.278130000000     0.619480000000     0.0397124  
C80      C      0.562040000000     0.340500000000     0.652440000000     0.139727   
C81      C      0.592480000000     0.017430000000     0.773520000000     0.0342636  
C82      C      0.572630000000     0.106180000000     0.762270000000     0.0138989  
C83      C      0.571460000000     0.007280000000     0.828500000000     0.044361   
C84      C      0.549220000000     0.094900000000     0.816080000000     0.138694   
C85      C      0.617240000000     0.066210000000     0.319710000000     0.0425218  
C86      C      0.544650000000     0.108560000000     0.314250000000     0.0169282  
C87      C      0.596020000000     0.041460000000     0.266240000000     0.0419929  
C88      C      0.523270000000     0.084330000000     0.260340000000     0.144528   
C89      C      0.611250000000     0.844910000000     0.959260000000     0.0311314  
C90      C      0.498620000000     0.793040000000     0.979260000000     0.00890393 
C91      C      0.605650000000     0.782440000000     0.956320000000     0.0460824  
C92      C      0.492180000000     0.730240000000     0.973880000000     0.142262   
C93      C      0.460700000000     0.278020000000     0.127930000000     0.0378418  
C94      C      0.577270000000     0.327250000000     0.132970000000     0.0117212  
C95      C      0.454220000000     0.215730000000     0.120460000000     0.0476784  
C96      C      0.571190000000     0.265210000000     0.128740000000     0.142517   
C97      C      0.831020000000     0.431560000000     0.506260000000     0.0389181  
C98      C      0.892840000000     0.398020000000     0.457840000000     0.0185256  
C99      C      0.774920000000     0.368890000000     0.500240000000     0.0477364  
C100     C      0.837650000000     0.333470000000     0.454380000000     0.140494   
C101     C      0.297720000000     0.818700000000     0.675730000000     0.0430696  
C102     C      0.332400000000     0.784320000000     0.601170000000     0.0154773  
C103     C      0.352720000000     0.883000000000     0.669740000000     0.0389839  
C104     C      0.379980000000     0.848800000000     0.589700000000     0.141264   
C105     C      0.781150000000     0.542120000000     0.607190000000     0.0334948  
C106     C      0.837630000000     0.633290000000     0.546580000000     0.0100684  
C107     C      0.840270000000     0.543800000000     0.623190000000     0.042183   
C108     C      0.897310000000     0.634840000000     0.561780000000     0.136941   
C109     C      0.378020000000     0.595260000000     0.558400000000     0.0496004  
C110     C      0.324170000000     0.512830000000     0.626720000000     0.0158017  
C111     C      0.319990000000     0.595880000000     0.544560000000     0.0409937  
C112     C      0.265480000000     0.515880000000     0.615340000000     0.135662   
C113     C      0.059690000000     0.501360000000     0.805830000000     0.0430746  
C114     C      0.083610000000     0.611040000000     0.816260000000     0.0192254  
C115     C      0.063830000000     0.493650000000     0.862950000000     0.0504543  
C116     C      0.091200000000     0.604790000000     0.873560000000     0.145399   
C117     C      0.066100000000     0.472740000000     0.354020000000     0.035548   
C118     C      0.060270000000     0.570530000000     0.349570000000     0.0129612  
C119     C      0.042910000000     0.460610000000     0.298990000000     0.0477769  
C120     C      0.032430000000     0.556240000000     0.295490000000     0.144532   
C121     C      0.801690000000     0.210170000000     0.967860000000     0.0345815  
C122     C      0.753760000000     0.277070000000     0.971200000000     0.0165984  
C123     C      0.865550000000     0.267540000000     0.972480000000     0.0382664  
C124     C      0.816760000000     0.333800000000     0.974840000000     0.141141   
C125     C      0.315920000000     0.799330000000     0.099750000000     0.0342263  
C126     C      0.272350000000     0.849970000000     0.150850000000     0.00670589 
C127     C      0.261100000000     0.738110000000     0.110260000000     0.0426983  
C128     C      0.217190000000     0.786510000000     0.164000000000     0.133209   
C129     C      0.803420000000     0.492740000000     0.124700000000     0.0419386  
C130     C      0.848040000000     0.533560000000     0.036830000000     0.0183413  
C131     C      0.752370000000     0.505570000000     0.109830000000     0.0519073  
C132     C      0.794560000000     0.541940000000     0.020060000000     0.153414   
C133     C      0.364970000000     0.631520000000     0.132090000000     0.0417676  
C134     C      0.360020000000     0.562860000000     0.061550000000     0.0293864  
C135     C      0.301870000000     0.619230000000     0.113910000000     0.0482901  
C136     C      0.299930000000     0.555500000000     0.039900000000     0.161916   
C137     C      0.898130000000     0.843590000000     0.610800000000     0.0353726  
C138     C      0.848720000000     0.903630000000     0.637050000000     0.0176297  
C139     C      0.837910000000     0.784980000000     0.614570000000     0.0558845  
C140     C      0.788520000000     0.843870000000     0.644600000000     0.152327   
C141     C      0.333430000000     0.398770000000     0.498880000000     0.0394836  
C142     C      0.381760000000     0.351740000000     0.448640000000     0.0132042  
C143     C      0.272460000000     0.339870000000     0.495470000000     0.0475737  
C144     C      0.319400000000     0.293030000000     0.442550000000     0.138331   
C145     C      0.837610000000     0.109710000000     0.529380000000     0.0273404  
C146     C      0.769310000000     0.994150000000     0.538630000000     0.0111443  
C147     C      0.881790000000     0.101010000000     0.500080000000     0.0237041  
C148     C      0.813050000000     0.984860000000     0.507460000000     0.135226   
C149     C      0.360690000000     0.069600000000     0.460510000000     0.0441354  
C150     C      0.349690000000     0.023600000000     0.550500000000     0.0203595  
C151     C      0.306930000000     0.077650000000     0.467450000000     0.0429921  
C152     C      0.299620000000     0.038160000000     0.560150000000     0.126674   
C153     C      0.152310000000     0.851210000000     0.545190000000     0.0465099  
C154     C      0.122950000000     0.811910000000     0.454190000000     0.0235555  
C155     C      0.153600000000     0.908910000000     0.528120000000     0.0417848  
C156     C      0.125880000000     0.872300000000     0.435890000000     0.137536   
C157     C      0.078290000000     0.340880000000     0.625350000000     0.0433934  
C158     C      0.050070000000     0.338010000000     0.529960000000     0.0125422  
C159     C      0.101860000000     0.297020000000     0.617560000000     0.0377037  
C160     C      0.073320000000     0.295100000000     0.521640000000     0.128641   
C161     C      0.063570000000     0.015250000000     0.735770000000     0.036461   
C162     C      0.012200000000     0.079870000000     0.733070000000     0.00661351 
C163     C      0.048320000000     0.998730000000     0.791390000000     0.0510753  
C164     C      0.999000000000     0.065710000000     0.789400000000     0.145702   
C165     C      0.069230000000     0.098450000000     0.240930000000     0.0420054  
C166     C      0.033420000000     0.984750000000     0.240280000000     0.0213144  
C167     C      0.057660000000     0.093310000000     0.297080000000     0.0389736  
C168     C      0.016430000000     0.978040000000     0.296200000000     0.144894   
C169     C      0.727400000000     0.834050000000     0.050100000000     0.0447046  
C170     C      0.752660000000     0.758580000000     0.013780000000     0.0258564  
C171     C      0.777230000000     0.885010000000     0.018820000000     0.0381939  
C172     C      0.795340000000     0.808210000000     0.976910000000     0.137802   
C173     C      0.288150000000     0.239770000000     0.017730000000     0.0326911  
C174     C      0.250490000000     0.282210000000     0.083930000000     0.0118389  
C175     C      0.345000000000     0.300740000000     0.012060000000     0.0437727  
C176     C      0.310550000000     0.342810000000     0.081630000000     0.145944   
C177     C      0.786110000000     0.074080000000     0.090810000000     0.0338891  
C178     C      0.736760000000     0.970160000000     0.135820000000     0.00948986 
C179     C      0.845620000000     0.074300000000     0.091390000000     0.040307   
C180     C      0.798480000000     0.971120000000     0.138090000000     0.127774   
C181     C      0.286220000000     0.976220000000     0.001570000000     0.0408541  
C182     C      0.330880000000     0.069880000000     0.942770000000     0.0147406  
C183     C      0.224470000000     0.973330000000     0.997220000000     0.04244    
C184     C      0.267280000000     0.063600000000     0.934220000000     0.135037   
C185     C      0.110130000000     0.787550000000     0.043320000000     0.0374313  
C186     C      0.023870000000     0.722650000000     0.978210000000     0.014366   
C187     C      0.081760000000     0.826710000000     0.049040000000     0.0435292  
C188     C      0.997590000000     0.764000000000     0.981080000000     0.148616   
C189     C      0.985130000000     0.218210000000     0.020510000000     0.0108997  
C190     C      0.101490000000     0.284970000000     0.024660000000     0.0106373  
C191     C      0.980670000000     0.255120000000     0.061550000000     0.0381306  
C192     C      0.097650000000     0.322180000000     0.066600000000     0.111165   
Co1      Co     0.026600000000     0.106780000000     0.054190000000     1.12409    
Co2      Co     0.013350000000     0.960110000000     0.983870000000     1.06154    
Co3      Co     0.108570000000     0.108270000000     0.957630000000     1.11327    
Co4      Co     0.985980000000     0.956500000000     0.082660000000     0.930962   
Co5      Co     0.139290000000     0.098380000000     0.447240000000     1.10847    
Co6      Co     0.014720000000     0.096650000000     0.546220000000     1.06743    
Co7      Co     0.008270000000     0.974460000000     0.495370000000     1.10583    
Co8      Co     0.161520000000     0.130190000000     0.578080000000     1.03956    
Co9      Co     0.077120000000     0.449240000000     0.045420000000     1.15883    
Co10     Co     0.023950000000     0.579760000000     0.107600000000     0.873761   
Co11     Co     0.956380000000     0.420000000000     0.123960000000     1.12416    
Co12     Co     0.104830000000     0.594310000000     0.057290000000     0.987179   
Co13     Co     0.080950000000     0.526770000000     0.528260000000     0.99498    
Co14     Co     0.093260000000     0.663860000000     0.636340000000     1.19836    
Co15     Co     0.007740000000     0.499630000000     0.631870000000     1.1043     
Co16     Co     0.154400000000     0.644240000000     0.522330000000     0.957978   
Co17     Co     0.461980000000     0.019680000000     0.082600000000     1.11956    
Co18     Co     0.595340000000     0.021690000000     0.007450000000     1.05789    
Co19     Co     0.551570000000     0.128990000000     0.998090000000     1.1836     
Co20     Co     0.528890000000     0.953660000000     0.089100000000     0.801121   
Co21     Co     0.529800000000     0.064350000000     0.591610000000     0.985479   
Co22     Co     0.690970000000     0.115400000000     0.492700000000     1.14787    
Co23     Co     0.584160000000     0.174150000000     0.495650000000     1.16581    
Co24     Co     0.588040000000     0.007510000000     0.580810000000     0.915485   
Co25     Co     0.559350000000     0.468700000000     0.022870000000     1.11728    
Co26     Co     0.546360000000     0.622770000000     0.099030000000     1.04304    
Co27     Co     0.480850000000     0.489670000000     0.118290000000     1.10502    
Co28     Co     0.651050000000     0.626160000000     0.028880000000     1.13428    
Co29     Co     0.588180000000     0.498010000000     0.534600000000     0.955872   
Co30     Co     0.581220000000     0.656470000000     0.621350000000     1.31764    
Co31     Co     0.511600000000     0.499650000000     0.596720000000     0.992798   
Co32     Co     0.656890000000     0.658480000000     0.507720000000     1.17169    
H1       H      0.505350000000     0.450670000000     0.761190000000     0.0523246  
H2       H      0.506380000000     0.446140000000     0.861610000000     0.0509917  
H3       H      0.673730000000     0.642090000000     0.867260000000     0.0823325  
H4       H      0.642860000000     0.673630000000     0.363640000000     0.0432399  
H5       H      0.628210000000     0.675010000000     0.264220000000     0.0560689  
H6       H      0.578480000000     0.473340000000     0.260950000000     0.0695493  
H7       H      0.649450000000     0.816540000000     0.435830000000     0.05254    
H8       H      0.656690000000     0.923920000000     0.421280000000     0.0451703  
H9       H      0.526820000000     0.877680000000     0.553120000000     0.064647   
H10      H      0.402530000000     0.273500000000     0.606890000000     0.0485538  
H11      H      0.418540000000     0.179320000000     0.593560000000     0.0505642  
H12      H      0.621390000000     0.294910000000     0.647250000000     0.0665215  
H13      H      0.574050000000     0.968940000000     0.853610000000     0.0494844  
H14      H      0.607140000000     0.984380000000     0.757920000000     0.0535278  
H15      H      0.569880000000     0.144440000000     0.737080000000     0.0748475  
H16      H      0.618390000000     0.015900000000     0.249010000000     0.0467244  
H17      H      0.654040000000     0.057220000000     0.341610000000     0.0483173  
H18      H      0.521900000000     0.133160000000     0.332510000000     0.0681738  
H19      H      0.649950000000     0.781210000000     0.947860000000     0.0486888  
H20      H      0.659240000000     0.888610000000     0.952760000000     0.0520753  
H21      H      0.454630000000     0.795650000000     0.986130000000     0.0727865  
H22      H      0.404930000000     0.173510000000     0.112740000000     0.0512939  
H23      H      0.416020000000     0.281400000000     0.126330000000     0.050397   
H24      H      0.626420000000     0.370370000000     0.138880000000     0.0616513  
H25      H      0.729790000000     0.359730000000     0.518550000000     0.045978   
H26      H      0.827820000000     0.467760000000     0.530030000000     0.0388543  
H27      H      0.939440000000     0.408170000000     0.441720000000     0.0704109  
H28      H      0.361790000000     0.920350000000     0.699280000000     0.0543378  
H29      H      0.262460000000     0.809240000000     0.706850000000     0.0467396  
H30      H      0.324920000000     0.746720000000     0.572350000000     0.0723956  
H31      H      0.838590000000     0.507790000000     0.654010000000     0.0486129  
H32      H      0.736540000000     0.504420000000     0.626190000000     0.0684796  
H33      H      0.837950000000     0.668020000000     0.515010000000     0.0655333  
H34      H      0.321130000000     0.628240000000     0.510390000000     0.0517385  
H35      H      0.420980000000     0.626960000000     0.534290000000     0.0565524  
H36      H      0.326260000000     0.482000000000     0.660860000000     0.067267   
H37      H      0.053980000000     0.445820000000     0.879600000000     0.0477619  
H38      H      0.047980000000     0.459460000000     0.780610000000     0.0512013  
H39      H      0.094890000000     0.658950000000     0.798720000000     0.0676802  
H40      H      0.038800000000     0.417420000000     0.280430000000     0.0571238  
H41      H      0.077390000000     0.437890000000     0.376070000000     0.0578414  
H42      H      0.063670000000     0.612710000000     0.369430000000     0.0822733  
H43      H      0.908670000000     0.262250000000     0.972670000000     0.0360932  
H44      H      0.797780000000     0.162250000000     0.965440000000     0.0446947  
H45      H      0.710580000000     0.283110000000     0.968000000000     0.0681281  
H46      H      0.256760000000     0.698580000000     0.086730000000     0.0569034  
H47      H      0.352080000000     0.800720000000     0.072940000000     0.0535371  
H48      H      0.276340000000     0.893700000000     0.168150000000     0.0768202  
H49      H      0.715680000000     0.495290000000     0.139920000000     0.0419254  
H50      H      0.805230000000     0.472900000000     0.165860000000     0.0567036  
H51      H      0.886380000000     0.547210000000     0.007600000000     0.0880539  
H52      H      0.276480000000     0.633840000000     0.140680000000     0.0415931  
H53      H      0.388670000000     0.660190000000     0.169110000000     0.0432227  
H54      H      0.382800000000     0.541250000000     0.039330000000     0.0929205  
H55      H      0.835160000000     0.739370000000     0.603340000000     0.0395344  
H56      H      0.939730000000     0.840420000000     0.597210000000     0.0528775  
H57      H      0.851020000000     0.950100000000     0.644210000000     0.0642235  
H58      H      0.231760000000     0.336120000000     0.517600000000     0.04309    
H59      H      0.336330000000     0.438390000000     0.522490000000     0.0511511  
H60      H      0.424570000000     0.354740000000     0.430740000000     0.0748421  
H61      H      0.925830000000     0.145530000000     0.486660000000     0.050133   
H62      H      0.849150000000     0.160040000000     0.535690000000     0.0456395  
H63      H      0.723870000000     0.950820000000     0.551490000000     0.0725818  
H64      H      0.291200000000     0.096930000000     0.431650000000     0.0624521  
H65      H      0.385690000000     0.085900000000     0.421690000000     0.0485052  
H66      H      0.366610000000     0.003720000000     0.584590000000     0.0723722  
H67      H      0.162000000000     0.943380000000     0.560180000000     0.0633259  
H68      H      0.163880000000     0.846690000000     0.588830000000     0.0503457  
H69      H      0.110900000000     0.773900000000     0.424400000000     0.0748802  
H70      H      0.119590000000     0.280020000000     0.653630000000     0.0504794  
H71      H      0.080180000000     0.357450000000     0.666820000000     0.0600502  
H72      H      0.031080000000     0.353490000000     0.493660000000     0.0789113  
H73      H      0.065120000000     0.967880000000     0.813210000000     0.0581146  
H74      H      0.089330000000     0.994580000000     0.716250000000     0.0591375  
H75      H      0.995620000000     0.110640000000     0.710800000000     0.0671744  
H76      H      0.069220000000     0.138460000000     0.317350000000     0.059339   
H77      H      0.087740000000     0.146430000000     0.220390000000     0.0458617  
H78      H      0.020070000000     0.940340000000     0.217950000000     0.0666842  
H79      H      0.788740000000     0.935350000000     0.024310000000     0.0432441  
H80      H      0.699210000000     0.845900000000     0.076430000000     0.0467077  
H81      H      0.744080000000     0.709140000000     0.009730000000     0.0065728  
H82      H      0.380420000000     0.305550000000     0.982660000000     0.0441339  
H83      H      0.282820000000     0.200480000000     0.992190000000     0.0533498  
H84      H      0.214690000000     0.275440000000     0.113700000000     0.067297   
H85      H      0.887320000000     0.117980000000     0.075170000000     0.0260791  
H86      H      0.785000000000     0.116770000000     0.072560000000     0.045952   
H87      H      0.694060000000     0.928070000000     0.153820000000     0.0650592  
H88      H      0.185630000000     0.936170000000     0.021570000000     0.043568   
H89      H      0.290540000000     0.940140000000     0.028560000000     0.0504865  
H90      H      0.371950000000     0.108870000000     0.920530000000     0.073359   
H91      H      0.105090000000     0.866340000000     0.078710000000     0.0560179  
H92      H      0.152610000000     0.796340000000     0.070120000000     0.0486101  
H93      H      0.996260000000     0.677830000000     0.954180000000     0.0808492  
H94      H      0.931460000000     0.241940000000     0.073470000000     0.0350196  
H95      H      0.939490000000     0.178100000000     0.002430000000     0.0420103  
H96      H      0.150030000000     0.296080000000     0.012660000000     0.0679018  
N1       N      0.588930000000     0.544840000000     0.871740000000    -0.179452   
N2       N      0.588180000000     0.549350000000     0.756680000000    -0.203656   
N3       N      0.689760000000     0.658190000000     0.759890000000    -0.027775   
N4       N      0.598690000000     0.573270000000     0.255630000000    -0.178995   
N5       N      0.617530000000     0.571690000000     0.370940000000    -0.19871    
N6       N      0.597720000000     0.458460000000     0.367800000000    -0.0295197  
N7       N      0.591610000000     0.908290000000     0.485600000000    -0.181567   
N8       N      0.586380000000     0.787680000000     0.504740000000    -0.213546   
N9       N      0.510840000000     0.764860000000     0.580430000000    -0.0279065  
N10      N      0.522610000000     0.233580000000     0.615420000000    -0.179823   
N11      N      0.503400000000     0.338020000000     0.634770000000    -0.18148    
N12      N      0.612920000000     0.394880000000     0.684380000000    -0.023974   
N13      N      0.592730000000     0.066780000000     0.740290000000    -0.171606   
N14      N      0.551320000000     0.046900000000     0.850360000000    -0.194905   
N15      N      0.518420000000     0.130950000000     0.832260000000    -0.028117   
N16      N      0.591060000000     0.099150000000     0.343900000000    -0.187529   
N17      N      0.549950000000     0.051190000000     0.236070000000    -0.195724   
N18      N      0.469060000000     0.089650000000     0.234340000000    -0.0262276  
N19      N      0.559120000000     0.849980000000     0.975730000000    -0.157502   
N20      N      0.548430000000     0.725820000000     0.970890000000    -0.189796   
N21      N      0.426930000000     0.672820000000     0.967260000000    -0.0305638  
N22      N      0.522450000000     0.333910000000     0.128910000000    -0.18326    
N23      N      0.509760000000     0.211020000000     0.115650000000    -0.191417   
N24      N      0.629640000000     0.259430000000     0.138300000000    -0.0250254  
N25      N      0.890580000000     0.444260000000     0.488330000000    -0.177139   
N26      N      0.780100000000     0.318480000000     0.479430000000    -0.207946   
N27      N      0.842230000000     0.285140000000     0.423470000000    -0.0306355  
N28      N      0.286440000000     0.771070000000     0.638960000000    -0.184874   
N29      N      0.393460000000     0.897680000000     0.626560000000    -0.186643   
N30      N      0.401450000000     0.863930000000     0.533660000000    -0.0249421  
N31      N      0.779720000000     0.586420000000     0.568600000000    -0.182581   
N32      N      0.898510000000     0.590220000000     0.601030000000    -0.203356   
N33      N      0.953690000000     0.677520000000     0.529990000000    -0.0275301  
N34      N      0.380690000000     0.555380000000     0.600390000000    -0.186268   
N35      N      0.263750000000     0.557070000000     0.572870000000    -0.196016   
N36      N      0.213910000000     0.484600000000     0.654470000000    -0.027999   
N37      N      0.068500000000     0.559670000000     0.782780000000    -0.189222   
N38      N      0.077500000000     0.544480000000     0.896770000000    -0.197792   
N39      N      0.124860000000     0.664340000000     0.904980000000    -0.0309419  
N40      N      0.076190000000     0.528450000000     0.378620000000    -0.166496   
N41      N      0.028360000000     0.503400000000     0.269140000000    -0.195001   
N42      N      0.001110000000     0.591960000000     0.271930000000    -0.0286202  
N43      N      0.746320000000     0.215160000000     0.972830000000    -0.176084   
N44      N      0.871840000000     0.327280000000     0.983700000000    -0.195582   
N45      N      0.823030000000     0.398200000000     0.969180000000    -0.0278251  
N46      N      0.322080000000     0.855620000000     0.119710000000    -0.159475   
N47      N      0.211620000000     0.730060000000     0.142820000000    -0.189017   
N48      N      0.169570000000     0.782410000000     0.200950000000    -0.0296615  
N49      N      0.851260000000     0.507480000000     0.088210000000    -0.17663    
N50      N      0.747740000000     0.528570000000     0.057630000000    -0.206836   
N51      N      0.791190000000     0.565740000000     0.964360000000    -0.0304754  
N52      N      0.391860000000     0.600410000000     0.107310000000    -0.16551    
N53      N      0.270650000000     0.583100000000     0.067240000000    -0.2002     
N54      N      0.271460000000     0.521390000000     0.988250000000    -0.0285664  
N55      N      0.901010000000     0.903030000000     0.615360000000    -0.177655   
N56      N      0.782300000000     0.785790000000     0.627160000000    -0.206168   
N57      N      0.732720000000     0.847020000000     0.661970000000    -0.0302878  
N58      N      0.389190000000     0.402490000000     0.479780000000    -0.177647   
N59      N      0.266050000000     0.286510000000     0.469310000000    -0.192221   
N60      N      0.314070000000     0.239550000000     0.411480000000    -0.0299194  
N61      N      0.781160000000     0.056540000000     0.548600000000    -0.181183   
N62      N      0.871650000000     0.039030000000     0.491100000000    -0.193757   
N63      N      0.793360000000     0.919170000000     0.490560000000    -0.0298661  
N64      N      0.383840000000     0.045390000000     0.502820000000    -0.1839     
N65      N      0.278650000000     0.066250000000     0.518070000000    -0.194694   
N66      N      0.276770000000     0.028900000000     0.615340000000    -0.0274403  
N67      N      0.132260000000     0.800470000000     0.509400000000    -0.18164    
N68      N      0.136070000000     0.918220000000     0.474760000000    -0.193878   
N69      N      0.114390000000     0.882170000000     0.377890000000    -0.0305364  
N70      N      0.053570000000     0.362060000000     0.581180000000    -0.174499   
N71      N      0.097670000000     0.272770000000     0.566020000000    -0.194304   
N72      N      0.072900000000     0.277320000000     0.465410000000    -0.0257653  
N73      N      0.047410000000     0.057560000000     0.707370000000    -0.176533   
N74      N      0.020690000000     0.027850000000     0.818900000000    -0.193535   
N75      N      0.961160000000     0.089600000000     0.814760000000    -0.0281833  
N76      N      0.058110000000     0.044580000000     0.212730000000    -0.178316   
N77      N      0.032930000000     0.033810000000     0.325480000000    -0.193172   
N78      N      0.977820000000     0.912570000000     0.319610000000    -0.0270487  
N79      N      0.719960000000     0.772270000000     0.051580000000    -0.185073   
N80      N      0.816740000000     0.872700000000     0.988000000000    -0.193478   
N81      N      0.816840000000     0.791580000000     0.928860000000    -0.0276517  
N82      N      0.238920000000     0.231660000000     0.050790000000    -0.181994   
N83      N      0.355370000000     0.352990000000     0.042310000000    -0.204924   
N84      N      0.329520000000     0.385950000000     0.127770000000    -0.0403875  
N85      N      0.730130000000     0.019690000000     0.108660000000    -0.177899   
N86      N      0.851080000000     0.020890000000     0.109990000000    -0.194124   
N87      N      0.803190000000     0.919330000000     0.168760000000    -0.0307301  
N88      N      0.340410000000     0.026360000000     0.976400000000    -0.174412   
N89      N      0.214260000000     0.017080000000     0.964390000000    -0.189179   
N90      N      0.259890000000     0.105750000000     0.892740000000    -0.0281872  
N91      N      0.078510000000     0.733530000000     0.010490000000    -0.162867   
N92      N      0.027490000000     0.816600000000     0.016280000000    -0.179227   
N93      N      0.932780000000     0.742680000000     0.956060000000    -0.0252173  
N94      N      0.045380000000     0.231360000000     0.003820000000    -0.19202    
N95      N      0.036440000000     0.308880000000     0.083020000000    -0.209813   
N96      N      0.158490000000     0.371510000000     0.092990000000    -0.0335072  
O1       O      0.005340000000     0.126210000000     0.982910000000    -0.435361   
O2       O      0.924310000000     0.943450000000     0.963940000000    -0.391868   
O3       O      0.044340000000     0.082380000000     0.899050000000    -0.425597   
O4       O      0.931530000000     0.988340000000     0.119970000000    -0.368015   
O5       O      0.025850000000     0.981410000000     0.904050000000    -0.382909   
O6       O      0.935980000000     0.053260000000     0.053080000000    -0.460741   
O7       O      0.905530000000     0.902880000000     0.045970000000    -0.455777   
O8       O      0.102290000000     0.189820000000     0.964320000000    -0.406091   
O9       O      0.043670000000     0.086370000000     0.129780000000    -0.442167   
O10      O      0.108810000000     0.979000000000     0.997520000000    -0.387171   
O11      O      0.171700000000     0.132770000000     0.013170000000    -0.475256   
O12      O      0.021400000000     0.900320000000     0.057090000000    -0.414054   
O13      O      0.987210000000     0.875810000000     0.968960000000    -0.387797   
O14      O      0.125350000000     0.173300000000     0.060310000000    -0.421855   
O15      O      0.060580000000     0.002870000000     0.130150000000    -0.419941   
O16      O      0.143130000000     0.054790000000     0.934580000000    -0.420687   
O17      O      0.036370000000     0.039780000000     0.016750000000    -0.577829   
O18      O      0.065490000000     0.088820000000     0.406210000000    -0.438422   
O19      O      0.072850000000     0.180350000000     0.521900000000    -0.430937   
O20      O      0.926480000000     0.981840000000     0.482910000000    -0.39368    
O21      O      0.222970000000     0.200300000000     0.530450000000    -0.428311   
O22      O      0.980030000000     0.085190000000     0.473680000000    -0.423284   
O23      O      0.167490000000     0.190370000000     0.451570000000    -0.39533    
O24      O      0.137380000000     0.201240000000     0.594700000000    -0.386252   
O25      O      0.013980000000     0.983200000000     0.412980000000    -0.400335   
O26      O      0.218430000000     0.111040000000     0.481290000000    -0.457572   
O27      O      0.946460000000     0.008900000000     0.578320000000    -0.415804   
O28      O      0.072560000000     0.954490000000     0.506350000000    -0.471013   
O29      O      0.108870000000     0.068640000000     0.633230000000    -0.419736   
O30      O      0.041790000000     0.107700000000     0.624940000000    -0.43202    
O31      O      0.126350000000     0.005990000000     0.433800000000    -0.392292   
O32      O      0.198820000000     0.073600000000     0.566020000000    -0.394727   
O33      O      0.996680000000     0.954510000000     0.570270000000    -0.443137   
O34      O      0.082310000000     0.073710000000     0.518400000000    -0.525196   
O35      O      0.983390000000     0.382800000000     0.015050000000    -0.418798   
O36      O      0.032310000000     0.627780000000     0.039500000000    -0.428694   
O37      O      0.904440000000     0.462400000000     0.141570000000    -0.406232   
O38      O      0.066570000000     0.569310000000     0.983680000000    -0.398922   
O39      O      0.949800000000     0.517820000000     0.071210000000    -0.435347   
O40      O      0.087530000000     0.489710000000     0.974120000000    -0.453456   
O41      O      0.140820000000     0.684150000000     0.034440000000    -0.368008   
O42      O      0.910290000000     0.396820000000     0.055400000000    -0.438253   
O43      O      0.164540000000     0.501570000000     0.067220000000    -0.450226   
O44      O      0.016780000000     0.541270000000     0.182170000000    -0.387945   
O45      O      0.974000000000     0.347100000000     0.117600000000    -0.427034   
O46      O      0.154680000000     0.618980000000     0.126490000000    -0.423397   
O47      O      0.098650000000     0.661140000000     0.142350000000    -0.38369    
O48      O      0.074620000000     0.411420000000     0.113860000000    -0.447913   
O49      O      0.184540000000     0.598380000000     0.037120000000    -0.400206   
O50      O      0.999010000000     0.439940000000     0.192470000000    -0.450028   
O51      O      0.048540000000     0.505570000000     0.085020000000    -0.516476   
O52      O      0.000570000000     0.523630000000     0.494870000000    -0.391198   
O53      O      0.123240000000     0.732050000000     0.582480000000    -0.468285   
O54      O      0.956750000000     0.543340000000     0.644300000000    -0.437387   
O55      O      0.111660000000     0.594590000000     0.454550000000    -0.442846   
O56      O      0.010710000000     0.643070000000     0.609890000000    -0.480864   
O57      O      0.091680000000     0.493280000000     0.464950000000    -0.396242   
O58      O      0.109080000000     0.692420000000     0.501520000000    -0.408068   
O59      O      0.948810000000     0.468900000000     0.568830000000    -0.452538   
O60      O      0.151320000000     0.517670000000     0.566310000000    -0.408452   
O61      O      0.064150000000     0.616810000000     0.704790000000    -0.469127   
O62      O      0.046150000000     0.441760000000     0.628160000000    -0.400652   
O63      O      0.208620000000     0.699140000000     0.578850000000    -0.453124   
O64      O      0.181140000000     0.694170000000     0.664100000000    -0.455692   
O65      O      0.025110000000     0.434610000000     0.542190000000    -0.408477   
O66      O      0.214410000000     0.612230000000     0.531570000000    -0.451273   
O67      O      0.057440000000     0.522560000000     0.696320000000    -0.477974   
O68      O      0.083030000000     0.581210000000     0.588260000000    -0.531331   
O69      O      0.410720000000     0.991440000000     0.014230000000    -0.437226   
O70      O      0.621970000000     0.964780000000     0.983950000000    -0.392973   
O71      O      0.552360000000     0.097470000000     0.928690000000    -0.464328   
O72      O      0.430190000000     0.913390000000     0.093310000000    -0.430843   
O73      O      0.538690000000     0.999050000000     0.938840000000    -0.413184   
O74      O      0.383940000000     0.970440000000     0.118560000000    -0.388954   
O75      O      0.520100000000     0.909660000000     0.017550000000    -0.404418   
O76      O      0.454680000000     0.092770000000     0.983880000000    -0.428248   
O77      O      0.505340000000     0.052070000000     0.149900000000    -0.443338   
O78      O      0.667360000000     0.102350000000     0.971390000000    -0.385386   
O79      O      0.555030000000     0.169330000000     0.062460000000    -0.451847   
O80      O      0.615890000000     0.961990000000     0.102350000000    -0.410532   
O81      O      0.663910000000     0.056170000000     0.065420000000    -0.422245   
O82      O      0.454420000000     0.101230000000     0.087230000000    -0.379882   
O83      O      0.543580000000     0.986840000000     0.163830000000    -0.411436   
O84      O      0.643300000000     0.172590000000     0.004870000000    -0.44542    
O85      O      0.546650000000     0.052340000000     0.045460000000    -0.596544   
O86      O      0.467080000000     0.025350000000     0.530090000000    -0.406519   
O87      O      0.657080000000     0.020090000000     0.478730000000    -0.422729   
O88      O      0.578890000000     0.141320000000     0.423410000000    -0.460903   
O89      O      0.496720000000     0.959720000000     0.594980000000    -0.45993    
O90      O      0.653910000000     0.112590000000     0.423030000000    -0.486937   
O91      O      0.459550000000     0.010820000000     0.640600000000    -0.377067   
O92      O      0.560550000000     0.979900000000     0.508340000000    -0.420535   
O93      O      0.491290000000     0.119530000000     0.493250000000    -0.47111    
O94      O      0.586550000000     0.106270000000     0.653210000000    -0.422756   
O95      O      0.740620000000     0.207730000000     0.491670000000    -0.464785   
O96      O      0.588110000000     0.213790000000     0.563780000000    -0.442775   
O97      O      0.676560000000     0.017610000000     0.577440000000    -0.398713   
O98      O      0.735640000000     0.120040000000     0.560940000000    -0.447111   
O99      O      0.501530000000     0.129400000000     0.597750000000    -0.388818   
O100     O      0.609240000000     0.028490000000     0.659850000000    -0.406222   
O101     O      0.670860000000     0.242420000000     0.489050000000    -0.490405   
O102     O      0.607020000000     0.104900000000     0.539790000000    -0.49838    
O103     O      0.465010000000     0.410920000000     0.024820000000    -0.458936   
O104     O      0.510110000000     0.632830000000     0.027010000000    -0.401807   
O105     O      0.456410000000     0.554830000000     0.122280000000    -0.526984   
O106     O      0.636490000000     0.588930000000     0.956490000000    -0.436841   
O107     O      0.502650000000     0.661450000000     0.130990000000    -0.372058   
O108     O      0.542220000000     0.496070000000     0.953450000000    -0.459818   
O109     O      0.607100000000     0.672790000000     0.993130000000    -0.43495    
O110     O      0.421860000000     0.462380000000     0.058120000000    -0.458053   
O111     O      0.651320000000     0.503820000000     0.010460000000    -0.447664   
O112     O      0.585690000000     0.619940000000     0.172620000000    -0.40229    
O113     O      0.484720000000     0.407470000000     0.125250000000    -0.420976   
O114     O      0.675960000000     0.670480000000     0.093170000000    -0.463645   
O115     O      0.620250000000     0.716280000000     0.090890000000    -0.375925   
O116     O      0.578290000000     0.436740000000     0.091070000000    -0.460943   
O117     O      0.699510000000     0.589680000000     0.061520000000    -0.45466    
O118     O      0.534390000000     0.513280000000     0.182440000000    -0.466889   
O119     O      0.566270000000     0.552170000000     0.064760000000    -0.528885   
O120     O      0.501620000000     0.445580000000     0.495950000000    -0.429715   
O121     O      0.583490000000     0.713360000000     0.569000000000    -0.528125   
O122     O      0.447670000000     0.513920000000     0.632060000000    -0.404225   
O123     O      0.603290000000     0.610640000000     0.449440000000    -0.486139   
O124     O      0.492150000000     0.616590000000     0.607510000000    -0.501156   
O125     O      0.621350000000     0.530290000000     0.459760000000    -0.397655   
O126     O      0.618820000000     0.712350000000     0.490080000000    -0.472178   
O127     O      0.456050000000     0.490460000000     0.534060000000    -0.439742   
O128     O      0.668420000000     0.534760000000     0.570010000000    -0.45573    
O129     O      0.578710000000     0.608990000000     0.684620000000    -0.503292   
O130     O      0.457340000000     0.406050000000     0.615410000000    -0.365935   
O131     O      0.715920000000     0.715680000000     0.560590000000    -0.49919    
O132     O      0.672970000000     0.709780000000     0.639150000000    -0.465243   
O133     O      0.561210000000     0.442000000000     0.599100000000    -0.447771   
O134     O      0.715750000000     0.620470000000     0.515620000000    -0.437746   
O135     O      0.559590000000     0.510670000000     0.668250000000    -0.408346   
O136     O      0.583970000000     0.588620000000     0.565220000000    -0.519026   
O137     O      0.719300000000     0.648770000000     0.720540000000    -0.0796609  
O138     O      0.715820000000     0.717050000000     0.780280000000    -0.0692252  
O139     O      0.648950000000     0.460050000000     0.394020000000    -0.0828772  
O140     O      0.545730000000     0.401410000000     0.355890000000    -0.0906132  
O141     O      0.446910000000     0.740230000000     0.575830000000    -0.0981326  
O142     O      0.538880000000     0.772880000000     0.629970000000    -0.0844525  
O143     O      0.673000000000     0.404630000000     0.689700000000    -0.0992088  
O144     O      0.596230000000     0.425410000000     0.717450000000    -0.0733269  
O145     O      0.460310000000     0.099300000000     0.853530000000    -0.0878131  
O146     O      0.542920000000     0.192920000000     0.817750000000    -0.0923794  
O147     O      0.469850000000     0.145490000000     0.235430000000    -0.085434   
O148     O      0.413250000000     0.036070000000     0.222090000000    -0.0710371  
O149     O      0.419180000000     0.621210000000     0.942380000000    -0.07402    
O150     O      0.374610000000     0.677370000000     0.974060000000    -0.0858608  
O151     O      0.625430000000     0.207220000000     0.163660000000    -0.0724616  
O152     O      0.688070000000     0.309060000000     0.127440000000    -0.0912255  
O153     O      0.898360000000     0.286090000000     0.422910000000    -0.0942692  
O154     O      0.793510000000     0.246640000000     0.389510000000    -0.0902396  
O155     O      0.387650000000     0.903550000000     0.504010000000    -0.0742506  
O156     O      0.410730000000     0.822330000000     0.507470000000    -0.093073   
O157     O      0.973060000000     0.740180000000     0.524900000000    -0.0958406  
O158     O      0.973500000000     0.651210000000     0.495310000000    -0.077692   
O159     O      0.187660000000     0.517210000000     0.672460000000    -0.0720578  
O160     O      0.207470000000     0.433540000000     0.683450000000    -0.101567   
O161     O      0.112300000000     0.711830000000     0.893320000000    -0.0918281  
O162     O      0.179940000000     0.678200000000     0.932610000000    -0.0654091  
O163     O      0.024320000000     0.653340000000     0.284840000000    -0.0683571  
O164     O      0.941650000000     0.559490000000     0.248630000000    -0.0797766  
O165     O      0.771460000000     0.404890000000     0.973070000000    -0.086972   
O166     O      0.877670000000     0.448410000000     0.951710000000    -0.0796513  
O167     O      0.155750000000     0.829640000000     0.201490000000    -0.0821558  
O168     O      0.147910000000     0.736960000000     0.239800000000    -0.0687317  
O169     O      0.767320000000     0.604800000000     0.953910000000    -0.0664661  
O170     O      0.818170000000     0.553590000000     0.924570000000    -0.067064   
O171     O      0.235120000000     0.537010000000     0.955080000000    -0.0709268  
O172     O      0.288700000000     0.480820000000     0.970810000000    -0.0751978  
O173     O      0.682830000000     0.833340000000     0.627130000000    -0.0825061  
O174     O      0.738920000000     0.878470000000     0.706840000000    -0.0795293  
O175     O      0.365850000000     0.233400000000     0.406840000000    -0.0975839  
O176     O      0.260270000000     0.202460000000     0.381620000000    -0.102859   
O177     O      0.801010000000     0.909140000000     0.439800000000    -0.0859247  
O178     O      0.758180000000     0.868350000000     0.522450000000    -0.10062    
O179     O      0.288000000000     0.080150000000     0.642890000000    -0.0869674  
O180     O      0.261510000000     0.974020000000     0.642450000000    -0.102013   
O181     O      0.085480000000     0.831880000000     0.344980000000    -0.0663558  
O182     O      0.142850000000     0.941490000000     0.356040000000    -0.0718397  
O183     O      0.127600000000     0.287880000000     0.445050000000    -0.0756352  
O184     O      0.021320000000     0.261710000000     0.431980000000    -0.0852062  
O185     O      0.918880000000     0.053590000000     0.851940000000    -0.0664946  
O186     O      0.963380000000     0.143860000000     0.796550000000    -0.0933384  
O187     O      0.987370000000     0.865420000000     0.305140000000    -0.0669992  
O188     O      0.923340000000     0.896620000000     0.343660000000    -0.0701724  
O189     O      0.787890000000     0.730440000000     0.913250000000    -0.0687896  
O190     O      0.855730000000     0.837840000000     0.894810000000    -0.0501679  
O191     O      0.349560000000     0.370500000000     0.174580000000    -0.0997022  
O192     O      0.319120000000     0.435440000000     0.125660000000    -0.0714776  
O193     O      0.823390000000     0.884050000000     0.145860000000    -0.0819555  
O194     O      0.775930000000     0.899620000000     0.216410000000    -0.087753   
O195     O      0.219350000000     0.079320000000     0.849890000000    -0.0830453  
O196     O      0.303890000000     0.168570000000     0.890900000000    -0.103229   
O197     O      0.885830000000     0.734050000000     0.987420000000    -0.0696541  
O198     O      0.917230000000     0.718010000000     0.906620000000    -0.0610286  
O199     O      0.210310000000     0.406080000000     0.063750000000    -0.0812332  
O200     O      0.165190000000     0.374720000000     0.146800000000    -0.0714103  


