data_structure

_audit_creation_method RASPA-1.0
_audit_creation_date 2023-5-19
_audit_author_name 'Poobodin Mano'

_cell_length_a    30.5921
_cell_length_b    30.6379
_cell_length_c    24.4359
_cell_angle_alpha 90
_cell_angle_beta  90
_cell_angle_gamma 90
_cell_volume      22903.2

_symmetry_cell_setting          triclinic
_symmetry_space_group_name_Hall 'P 1'
_symmetry_space_group_name_H-M  'P 1'
_symmetry_Int_Tables_number     1

_symmetry_equiv_pos_as_xyz 'x,y,z'

loop_
_atom_site_label
_atom_site_type_symbol
_atom_site_fract_x
_atom_site_fract_y
_atom_site_fract_z
_atom_site_charge
C1       C      0.424690000000     0.425940000000     0.184970000000     0.392336   
C2       C      0.099480000000     0.097850000000     0.180690000000     0.391633   
C3       C      0.068020000000     0.454030000000     0.235140000000     0.394296   
C4       C      0.454080000000     0.070050000000     0.231450000000     0.394968   
C5       C      0.420550000000     0.101170000000     0.608010000000     0.395766   
C6       C      0.102410000000     0.416210000000     0.617740000000     0.400018   
C7       C      0.453220000000     0.451070000000     0.538400000000     0.40595    
C8       C      0.080380000000     0.077380000000     0.546500000000     0.397417   
C9       C      0.318660000000     0.320740000000     0.289730000000     0.396263   
C10      C      0.203730000000     0.204030000000     0.283630000000     0.395664   
C11      C      0.347250000000     0.175380000000     0.334830000000     0.391441   
C12      C      0.172270000000     0.347630000000     0.338280000000     0.390745   
C13      C      0.190470000000     0.327560000000     0.472220000000     0.396486   
C14      C      0.321400000000     0.197100000000     0.477380000000     0.401769   
C15      C      0.349130000000     0.348580000000     0.424770000000     0.393232   
C16      C      0.168610000000     0.166440000000     0.401160000000     0.400225   
C17      C      0.112890000000     0.170390000000     0.222140000000    -0.0149535  
C18      C      0.173570000000     0.113320000000     0.216390000000    -0.0438465  
C19      C      0.147430000000     0.205660000000     0.211620000000    -0.0104705  
C20      C      0.205600000000     0.150690000000     0.204500000000     0.0811228  
C21      C      0.253270000000     0.137460000000     0.216020000000    -0.188936   
C22      C      0.083760000000     0.139590000000     0.482730000000    -0.0152771  
C23      C      0.141260000000     0.078570000000     0.480270000000    -0.0447994  
C24      C      0.092090000000     0.146780000000     0.421640000000    -0.010649   
C25      C      0.146180000000     0.087730000000     0.418830000000     0.081564   
C26      C      0.189560000000     0.069800000000     0.396150000000    -0.189548   
C27      C      0.158980000000     0.420100000000     0.296530000000    -0.0151341  
C28      C      0.098020000000     0.363330000000     0.303030000000    -0.0444107  
C29      C      0.124590000000     0.455560000000     0.306870000000    -0.0104178  
C30      C      0.066160000000     0.400950000000     0.314640000000     0.0816714  
C31      C      0.018340000000     0.388010000000     0.303410000000    -0.190154   
C32      C      0.361760000000     0.103860000000     0.291070000000    -0.0141752  
C33      C      0.420950000000     0.162180000000     0.295880000000    -0.0445776  
C34      C      0.396910000000     0.069390000000     0.302450000000    -0.0111542  
C35      C      0.454020000000     0.125730000000     0.308310000000     0.0815886  
C36      C      0.501360000000     0.139910000000     0.296260000000    -0.189672   
C37      C      0.363350000000     0.420700000000     0.466020000000    -0.015312   
C38      C      0.423130000000     0.362190000000     0.461210000000    -0.044931   
C39      C      0.399430000000     0.455260000000     0.463130000000    -0.0106684  
C40      C      0.456670000000     0.399270000000     0.457040000000     0.0810194  
C41      C      0.503000000000     0.383850000000     0.472370000000    -0.188601   
C42      C      0.342960000000     0.122080000000     0.597010000000    -0.0135272  
C43      C      0.404500000000     0.176700000000     0.582240000000    -0.0402543  
C44      C      0.320150000000     0.138320000000     0.545230000000    -0.00895514 
C45      C      0.367950000000     0.206220000000     0.559490000000     0.0765624  
C46      C      0.343820000000     0.231430000000     0.604620000000    -0.18491    
C47      C      0.186830000000     0.389690000000     0.536120000000    -0.0155198  
C48      C      0.129090000000     0.328930000000     0.537820000000    -0.0440465  
C49      C      0.178800000000     0.396260000000     0.597350000000    -0.0105973  
C50      C      0.124350000000     0.337500000000     0.599430000000     0.0802684  
C51      C      0.080910000000     0.319650000000     0.622000000000    -0.187856   
C52      C      0.410830000000     0.355150000000     0.230740000000    -0.0146649  
C53      C      0.351210000000     0.412900000000     0.224570000000    -0.0450756  
C54      C      0.376110000000     0.320440000000     0.219130000000    -0.0109126  
C55      C      0.318430000000     0.376150000000     0.212530000000     0.0817481  
C56      C      0.270960000000     0.390010000000     0.224400000000    -0.190026   
C57      C      0.424690000000     0.425940000000     0.684960000000     0.39236    
C58      C      0.099480000000     0.097850000000     0.680690000000     0.391658   
C59      C      0.068020000000     0.454030000000     0.735140000000     0.394305   
C60      C      0.454080000000     0.070050000000     0.731450000000     0.394964   
C61      C      0.420550000000     0.101170000000     0.108010000000     0.395768   
C62      C      0.102410000000     0.416210000000     0.117740000000     0.400023   
C63      C      0.453220000000     0.451070000000     0.038400000000     0.405937   
C64      C      0.080380000000     0.077380000000     0.046500000000     0.397383   
C65      C      0.318660000000     0.320740000000     0.789720000000     0.396192   
C66      C      0.203730000000     0.204030000000     0.783630000000     0.395664   
C67      C      0.347250000000     0.175380000000     0.834830000000     0.391435   
C68      C      0.172270000000     0.347630000000     0.838280000000     0.390746   
C69      C      0.190470000000     0.327560000000     0.972220000000     0.396502   
C70      C      0.321400000000     0.197100000000     0.977380000000     0.401803   
C71      C      0.349130000000     0.348580000000     0.924770000000     0.393268   
C72      C      0.168610000000     0.166440000000     0.901160000000     0.400227   
C73      C      0.112890000000     0.170390000000     0.722140000000    -0.0149529  
C74      C      0.173570000000     0.113320000000     0.716390000000    -0.0438441  
C75      C      0.147430000000     0.205660000000     0.711620000000    -0.0104709  
C76      C      0.205600000000     0.150690000000     0.704500000000     0.0811218  
C77      C      0.253270000000     0.137460000000     0.716020000000    -0.188936   
C78      C      0.083760000000     0.139590000000     0.982720000000    -0.0152378  
C79      C      0.141260000000     0.078570000000     0.980270000000    -0.0447635  
C80      C      0.092090000000     0.146780000000     0.921640000000    -0.0106556  
C81      C      0.146180000000     0.087730000000     0.918830000000     0.0815573  
C82      C      0.189560000000     0.069800000000     0.896150000000    -0.189545   
C83      C      0.158980000000     0.420100000000     0.796530000000    -0.015122   
C84      C      0.098020000000     0.363330000000     0.803030000000    -0.0444099  
C85      C      0.124590000000     0.455560000000     0.806880000000    -0.0104468  
C86      C      0.066160000000     0.400950000000     0.814640000000     0.0816714  
C87      C      0.018340000000     0.388010000000     0.803410000000    -0.190155   
C88      C      0.361760000000     0.103860000000     0.791070000000    -0.014175   
C89      C      0.420950000000     0.162180000000     0.795880000000    -0.044578   
C90      C      0.396910000000     0.069390000000     0.802450000000    -0.0111548  
C91      C      0.454020000000     0.125730000000     0.808310000000     0.0815885  
C92      C      0.501360000000     0.139910000000     0.796260000000    -0.189673   
C93      C      0.363350000000     0.420700000000     0.966020000000    -0.0153049  
C94      C      0.423130000000     0.362190000000     0.961210000000    -0.0449168  
C95      C      0.399430000000     0.455260000000     0.963140000000    -0.0106421  
C96      C      0.456670000000     0.399270000000     0.957040000000     0.0809975  
C97      C      0.503000000000     0.383850000000     0.972370000000    -0.18851    
C98      C      0.342960000000     0.122080000000     0.097010000000    -0.0135279  
C99      C      0.404500000000     0.176700000000     0.082240000000    -0.0402449  
C100     C      0.320150000000     0.138320000000     0.045230000000    -0.0089526  
C101     C      0.367950000000     0.206220000000     0.059480000000     0.076556   
C102     C      0.343820000000     0.231430000000     0.104620000000    -0.184892   
C103     C      0.186830000000     0.389690000000     0.036120000000    -0.0155188  
C104     C      0.129090000000     0.328930000000     0.037820000000    -0.0440457  
C105     C      0.178800000000     0.396260000000     0.097350000000    -0.0105981  
C106     C      0.124350000000     0.337500000000     0.099430000000     0.0802676  
C107     C      0.080910000000     0.319650000000     0.122000000000    -0.187855   
C108     C      0.410830000000     0.355150000000     0.730750000000    -0.0146954  
C109     C      0.351210000000     0.412900000000     0.724570000000    -0.0450809  
C110     C      0.376110000000     0.320440000000     0.719130000000    -0.0108965  
C111     C      0.318430000000     0.376150000000     0.712530000000     0.0817544  
C112     C      0.270960000000     0.390010000000     0.724400000000    -0.190029   
C113     C      0.424690000000     0.925940000000     0.184970000000     0.392331   
C114     C      0.099480000000     0.597850000000     0.180690000000     0.391636   
C115     C      0.068020000000     0.954030000000     0.235140000000     0.3944     
C116     C      0.454080000000     0.570050000000     0.231450000000     0.394977   
C117     C      0.420550000000     0.601160000000     0.608010000000     0.395818   
C118     C      0.102410000000     0.916210000000     0.617740000000     0.400011   
C119     C      0.453220000000     0.951060000000     0.538400000000     0.405949   
C120     C      0.080380000000     0.577380000000     0.546500000000     0.39742    
C121     C      0.318660000000     0.820740000000     0.289730000000     0.39626    
C122     C      0.203730000000     0.704030000000     0.283630000000     0.395539   
C123     C      0.347250000000     0.675380000000     0.334830000000     0.391441   
C124     C      0.172270000000     0.847630000000     0.338280000000     0.390691   
C125     C      0.190470000000     0.827560000000     0.472220000000     0.396387   
C126     C      0.321400000000     0.697100000000     0.477380000000     0.401768   
C127     C      0.349130000000     0.848580000000     0.424770000000     0.393232   
C128     C      0.168610000000     0.666440000000     0.401160000000     0.400225   
C129     C      0.112890000000     0.670390000000     0.222140000000    -0.0149526  
C130     C      0.173570000000     0.613320000000     0.216390000000    -0.0438549  
C131     C      0.147430000000     0.705660000000     0.211620000000    -0.0104784  
C132     C      0.205600000000     0.650690000000     0.204500000000     0.0811383  
C133     C      0.253270000000     0.637460000000     0.216020000000    -0.188997   
C134     C      0.083760000000     0.639600000000     0.482730000000    -0.0153563  
C135     C      0.141260000000     0.578560000000     0.480270000000    -0.0448521  
C136     C      0.092090000000     0.646780000000     0.421640000000    -0.0106151  
C137     C      0.146180000000     0.587730000000     0.418830000000     0.0815887  
C138     C      0.189560000000     0.569800000000     0.396150000000    -0.189565   
C139     C      0.158980000000     0.920100000000     0.296530000000    -0.0151023  
C140     C      0.098020000000     0.863330000000     0.303030000000    -0.0444426  
C141     C      0.124590000000     0.955560000000     0.306870000000    -0.010429   
C142     C      0.066160000000     0.900950000000     0.314640000000     0.0816852  
C143     C      0.018340000000     0.888010000000     0.303410000000    -0.190162   
C144     C      0.361760000000     0.603860000000     0.291070000000    -0.0141739  
C145     C      0.420950000000     0.662180000000     0.295880000000    -0.0445862  
C146     C      0.396910000000     0.569390000000     0.302450000000    -0.0111576  
C147     C      0.454020000000     0.625730000000     0.308310000000     0.0816134  
C148     C      0.501360000000     0.639910000000     0.296260000000    -0.189748   
C149     C      0.363350000000     0.920700000000     0.466020000000    -0.0153047  
C150     C      0.423130000000     0.862190000000     0.461210000000    -0.0449219  
C151     C      0.399430000000     0.955260000000     0.463130000000    -0.0106485  
C152     C      0.456670000000     0.899270000000     0.457040000000     0.0809795  
C153     C      0.503000000000     0.883850000000     0.472370000000    -0.188587   
C154     C      0.342960000000     0.622080000000     0.597010000000    -0.0135388  
C155     C      0.404500000000     0.676700000000     0.582240000000    -0.0402548  
C156     C      0.320150000000     0.638320000000     0.545230000000    -0.0089529  
C157     C      0.367950000000     0.706220000000     0.559490000000     0.076561   
C158     C      0.343820000000     0.731430000000     0.604620000000    -0.18491    
C159     C      0.186830000000     0.889690000000     0.536120000000    -0.0155582  
C160     C      0.129090000000     0.828930000000     0.537820000000    -0.0440653  
C161     C      0.178800000000     0.896260000000     0.597350000000    -0.0105745  
C162     C      0.124350000000     0.837500000000     0.599430000000     0.0802741  
C163     C      0.080910000000     0.819650000000     0.622000000000    -0.187857   
C164     C      0.410830000000     0.855160000000     0.230740000000    -0.0146052  
C165     C      0.351210000000     0.912900000000     0.224570000000    -0.0450749  
C166     C      0.376110000000     0.820440000000     0.219130000000    -0.0109413  
C167     C      0.318430000000     0.876150000000     0.212530000000     0.0817368  
C168     C      0.270960000000     0.890010000000     0.224400000000    -0.189976   
C169     C      0.424690000000     0.925940000000     0.684960000000     0.392355   
C170     C      0.099480000000     0.597850000000     0.680690000000     0.391661   
C171     C      0.068020000000     0.954030000000     0.735140000000     0.394409   
C172     C      0.454080000000     0.570050000000     0.731450000000     0.394973   
C173     C      0.420550000000     0.601160000000     0.108010000000     0.395821   
C174     C      0.102410000000     0.916210000000     0.117740000000     0.400017   
C175     C      0.453220000000     0.951060000000     0.038400000000     0.405935   
C176     C      0.080380000000     0.577380000000     0.046500000000     0.397386   
C177     C      0.318660000000     0.820740000000     0.789720000000     0.396189   
C178     C      0.203730000000     0.704030000000     0.783630000000     0.395539   
C179     C      0.347250000000     0.675380000000     0.834830000000     0.391435   
C180     C      0.172270000000     0.847630000000     0.838280000000     0.390692   
C181     C      0.190470000000     0.827560000000     0.972220000000     0.396403   
C182     C      0.321400000000     0.697100000000     0.977380000000     0.401802   
C183     C      0.349130000000     0.848580000000     0.924770000000     0.393267   
C184     C      0.168610000000     0.666440000000     0.901160000000     0.400226   
C185     C      0.112890000000     0.670390000000     0.722140000000    -0.0149521  
C186     C      0.173570000000     0.613320000000     0.716390000000    -0.0438525  
C187     C      0.147430000000     0.705660000000     0.711620000000    -0.0104788  
C188     C      0.205600000000     0.650690000000     0.704500000000     0.0811374  
C189     C      0.253270000000     0.637460000000     0.716020000000    -0.188996   
C190     C      0.083760000000     0.639600000000     0.982720000000    -0.0153169  
C191     C      0.141260000000     0.578560000000     0.980270000000    -0.0448162  
C192     C      0.092090000000     0.646780000000     0.921640000000    -0.0106216  
C193     C      0.146180000000     0.587730000000     0.918830000000     0.0815819  
C194     C      0.189560000000     0.569800000000     0.896150000000    -0.189562   
C195     C      0.158980000000     0.920100000000     0.796530000000    -0.0150902  
C196     C      0.098020000000     0.863330000000     0.803030000000    -0.0444418  
C197     C      0.124590000000     0.955560000000     0.806880000000    -0.010458   
C198     C      0.066160000000     0.900950000000     0.814640000000     0.0816853  
C199     C      0.018340000000     0.888010000000     0.803410000000    -0.190163   
C200     C      0.361760000000     0.603860000000     0.791070000000    -0.0141737  
C201     C      0.420950000000     0.662180000000     0.795880000000    -0.0445867  
C202     C      0.396910000000     0.569390000000     0.802450000000    -0.0111582  
C203     C      0.454020000000     0.625730000000     0.808310000000     0.0816134  
C204     C      0.501360000000     0.639910000000     0.796260000000    -0.189748   
C205     C      0.363350000000     0.920700000000     0.966020000000    -0.0152977  
C206     C      0.423130000000     0.862190000000     0.961210000000    -0.0449077  
C207     C      0.399430000000     0.955260000000     0.963140000000    -0.0106222  
C208     C      0.456670000000     0.899270000000     0.957040000000     0.0809577  
C209     C      0.503000000000     0.883850000000     0.972370000000    -0.188496   
C210     C      0.342960000000     0.622080000000     0.097010000000    -0.0135395  
C211     C      0.404500000000     0.676700000000     0.082240000000    -0.0402453  
C212     C      0.320150000000     0.638320000000     0.045230000000    -0.00895036 
C213     C      0.367950000000     0.706220000000     0.059480000000     0.0765546  
C214     C      0.343820000000     0.731430000000     0.104620000000    -0.184892   
C215     C      0.186830000000     0.889690000000     0.036120000000    -0.0155573  
C216     C      0.129090000000     0.828930000000     0.037820000000    -0.0440645  
C217     C      0.178800000000     0.896260000000     0.097350000000    -0.0105753  
C218     C      0.124350000000     0.837500000000     0.099430000000     0.0802733  
C219     C      0.080910000000     0.819650000000     0.122000000000    -0.187857   
C220     C      0.410830000000     0.855160000000     0.730750000000    -0.0146357  
C221     C      0.351210000000     0.912900000000     0.724570000000    -0.0450801  
C222     C      0.376110000000     0.820440000000     0.719130000000    -0.0109251  
C223     C      0.318430000000     0.876150000000     0.712530000000     0.0817432  
C224     C      0.270960000000     0.890010000000     0.724400000000    -0.189979   
C225     C      0.924690000000     0.425940000000     0.184970000000     0.392324   
C226     C      0.599480000000     0.097850000000     0.180690000000     0.391634   
C227     C      0.568020000000     0.454030000000     0.235140000000     0.394304   
C228     C      0.954080000000     0.070050000000     0.231450000000     0.394973   
C229     C      0.920550000000     0.101170000000     0.608010000000     0.395758   
C230     C      0.602410000000     0.416210000000     0.617740000000     0.400019   
C231     C      0.953220000000     0.451070000000     0.538400000000     0.405954   
C232     C      0.580380000000     0.077380000000     0.546500000000     0.397334   
C233     C      0.818660000000     0.320740000000     0.289730000000     0.396263   
C234     C      0.703730000000     0.204030000000     0.283630000000     0.395772   
C235     C      0.847250000000     0.175380000000     0.334830000000     0.391507   
C236     C      0.672270000000     0.347630000000     0.338280000000     0.390746   
C237     C      0.690470000000     0.327560000000     0.472220000000     0.396485   
C238     C      0.821400000000     0.197100000000     0.477380000000     0.40174    
C239     C      0.849130000000     0.348580000000     0.424770000000     0.393226   
C240     C      0.668610000000     0.166440000000     0.401160000000     0.400225   
C241     C      0.612890000000     0.170390000000     0.222140000000    -0.014945   
C242     C      0.673570000000     0.113320000000     0.216390000000    -0.0438477  
C243     C      0.647430000000     0.205660000000     0.211620000000    -0.0104686  
C244     C      0.705600000000     0.150690000000     0.204500000000     0.0811184  
C245     C      0.753280000000     0.137460000000     0.216020000000    -0.189067   
C246     C      0.583760000000     0.139590000000     0.482730000000    -0.0152795  
C247     C      0.641260000000     0.078570000000     0.480270000000    -0.0447644  
C248     C      0.592090000000     0.146780000000     0.421640000000    -0.0106494  
C249     C      0.646180000000     0.087730000000     0.418830000000     0.0815513  
C250     C      0.689560000000     0.069800000000     0.396150000000    -0.189542   
C251     C      0.658990000000     0.420100000000     0.296530000000    -0.0151957  
C252     C      0.598020000000     0.363330000000     0.303030000000    -0.0443967  
C253     C      0.624590000000     0.455560000000     0.306870000000    -0.0103965  
C254     C      0.566160000000     0.400950000000     0.314640000000     0.0816208  
C255     C      0.518340000000     0.388010000000     0.303410000000    -0.18992    
C256     C      0.861760000000     0.103860000000     0.291070000000    -0.0141741  
C257     C      0.920960000000     0.162180000000     0.295880000000    -0.0446857  
C258     C      0.896910000000     0.069390000000     0.302450000000    -0.011152   
C259     C      0.954020000000     0.125730000000     0.308310000000     0.0817427  
C260     C      0.001360000000     0.139910000000     0.296260000000    -0.189825   
C261     C      0.863350000000     0.420700000000     0.466020000000    -0.0153292  
C262     C      0.923130000000     0.362190000000     0.461210000000    -0.044988   
C263     C      0.899430000000     0.455260000000     0.463130000000    -0.0106642  
C264     C      0.956670000000     0.399270000000     0.457040000000     0.081129   
C265     C      0.003010000000     0.383850000000     0.472370000000    -0.188809   
C266     C      0.842960000000     0.122080000000     0.597010000000    -0.0135171  
C267     C      0.904500000000     0.176700000000     0.582240000000    -0.0402483  
C268     C      0.820150000000     0.138320000000     0.545230000000    -0.00898151 
C269     C      0.867950000000     0.206220000000     0.559490000000     0.0766166  
C270     C      0.843820000000     0.231430000000     0.604620000000    -0.185035   
C271     C      0.686830000000     0.389690000000     0.536120000000    -0.0155527  
C272     C      0.629090000000     0.328930000000     0.537820000000    -0.0440496  
C273     C      0.678800000000     0.396260000000     0.597350000000    -0.0105865  
C274     C      0.624350000000     0.337500000000     0.599430000000     0.0802734  
C275     C      0.580910000000     0.319650000000     0.622000000000    -0.187865   
C276     C      0.910830000000     0.355150000000     0.230740000000    -0.0146712  
C277     C      0.851210000000     0.412900000000     0.224570000000    -0.0451025  
C278     C      0.876110000000     0.320440000000     0.219130000000    -0.0109091  
C279     C      0.818430000000     0.376150000000     0.212530000000     0.0817775  
C280     C      0.770970000000     0.390010000000     0.224400000000    -0.189964   
C281     C      0.924690000000     0.425940000000     0.684960000000     0.392348   
C282     C      0.599480000000     0.097850000000     0.680690000000     0.391659   
C283     C      0.568020000000     0.454030000000     0.735140000000     0.394313   
C284     C      0.954080000000     0.070050000000     0.731450000000     0.394969   
C285     C      0.920550000000     0.101170000000     0.108010000000     0.39576    
C286     C      0.602410000000     0.416210000000     0.117740000000     0.400024   
C287     C      0.953220000000     0.451070000000     0.038400000000     0.40594    
C288     C      0.580380000000     0.077380000000     0.046500000000     0.3973     
C289     C      0.818660000000     0.320740000000     0.789720000000     0.396193   
C290     C      0.703730000000     0.204030000000     0.783630000000     0.395772   
C291     C      0.847250000000     0.175380000000     0.834830000000     0.3915     
C292     C      0.672270000000     0.347630000000     0.838280000000     0.390747   
C293     C      0.690470000000     0.327560000000     0.972220000000     0.396502   
C294     C      0.821400000000     0.197100000000     0.977380000000     0.401774   
C295     C      0.849130000000     0.348580000000     0.924770000000     0.393262   
C296     C      0.668610000000     0.166440000000     0.901160000000     0.400227   
C297     C      0.612890000000     0.170390000000     0.722140000000    -0.0149445  
C298     C      0.673570000000     0.113320000000     0.716390000000    -0.0438453  
C299     C      0.647430000000     0.205660000000     0.711620000000    -0.010469   
C300     C      0.705600000000     0.150690000000     0.704500000000     0.0811174  
C301     C      0.753280000000     0.137460000000     0.716020000000    -0.189067   
C302     C      0.583760000000     0.139590000000     0.982720000000    -0.0152402  
C303     C      0.641260000000     0.078570000000     0.980270000000    -0.0447285  
C304     C      0.592090000000     0.146780000000     0.921640000000    -0.010656   
C305     C      0.646180000000     0.087730000000     0.918830000000     0.0815445  
C306     C      0.689560000000     0.069800000000     0.896150000000    -0.18954    
C307     C      0.658990000000     0.420100000000     0.796530000000    -0.0151836  
C308     C      0.598020000000     0.363330000000     0.803030000000    -0.0443959  
C309     C      0.624590000000     0.455560000000     0.806880000000    -0.0104255  
C310     C      0.566160000000     0.400950000000     0.814640000000     0.0816209  
C311     C      0.518340000000     0.388010000000     0.803410000000    -0.189921   
C312     C      0.861760000000     0.103860000000     0.791070000000    -0.0141739  
C313     C      0.920960000000     0.162180000000     0.795880000000    -0.0446861  
C314     C      0.896910000000     0.069390000000     0.802450000000    -0.0111526  
C315     C      0.954020000000     0.125730000000     0.808310000000     0.0817427  
C316     C      0.001360000000     0.139910000000     0.796260000000    -0.189825   
C317     C      0.863350000000     0.420700000000     0.966020000000    -0.0153221  
C318     C      0.923130000000     0.362190000000     0.961210000000    -0.0449738  
C319     C      0.899430000000     0.455260000000     0.963140000000    -0.0106378  
C320     C      0.956670000000     0.399270000000     0.957040000000     0.0811071  
C321     C      0.003010000000     0.383850000000     0.972370000000    -0.188718   
C322     C      0.842960000000     0.122080000000     0.097010000000    -0.0135177  
C323     C      0.904500000000     0.176700000000     0.082240000000    -0.0402388  
C324     C      0.820150000000     0.138320000000     0.045230000000    -0.00897897 
C325     C      0.867950000000     0.206220000000     0.059480000000     0.0766102  
C326     C      0.843820000000     0.231430000000     0.104620000000    -0.185017   
C327     C      0.686830000000     0.389690000000     0.036120000000    -0.0155518  
C328     C      0.629090000000     0.328930000000     0.037820000000    -0.0440488  
C329     C      0.678800000000     0.396260000000     0.097350000000    -0.0105872  
C330     C      0.624350000000     0.337500000000     0.099430000000     0.0802727  
C331     C      0.580910000000     0.319650000000     0.122000000000    -0.187864   
C332     C      0.910830000000     0.355150000000     0.730750000000    -0.0147017  
C333     C      0.851210000000     0.412900000000     0.724570000000    -0.0451078  
C334     C      0.876110000000     0.320440000000     0.719130000000    -0.0108929  
C335     C      0.818430000000     0.376150000000     0.712530000000     0.0817838  
C336     C      0.770970000000     0.390010000000     0.724400000000    -0.189967   
C337     C      0.924690000000     0.925940000000     0.184970000000     0.392319   
C338     C      0.599480000000     0.597850000000     0.180690000000     0.391638   
C339     C      0.568020000000     0.954030000000     0.235140000000     0.394408   
C340     C      0.954080000000     0.570050000000     0.231450000000     0.394982   
C341     C      0.920550000000     0.601160000000     0.608010000000     0.39581    
C342     C      0.602410000000     0.916210000000     0.617740000000     0.400012   
C343     C      0.953220000000     0.951060000000     0.538400000000     0.405952   
C344     C      0.580380000000     0.577380000000     0.546500000000     0.397337   
C345     C      0.818660000000     0.820740000000     0.289730000000     0.396261   
C346     C      0.703730000000     0.704030000000     0.283630000000     0.395646   
C347     C      0.847250000000     0.675380000000     0.334830000000     0.391507   
C348     C      0.672270000000     0.847630000000     0.338280000000     0.390692   
C349     C      0.690470000000     0.827560000000     0.472220000000     0.396386   
C350     C      0.821400000000     0.697100000000     0.477380000000     0.40174    
C351     C      0.849130000000     0.848580000000     0.424770000000     0.393226   
C352     C      0.668610000000     0.666440000000     0.401160000000     0.400225   
C353     C      0.612890000000     0.670390000000     0.222140000000    -0.0149442  
C354     C      0.673570000000     0.613320000000     0.216390000000    -0.0438561  
C355     C      0.647430000000     0.705660000000     0.211620000000    -0.0104764  
C356     C      0.705600000000     0.650690000000     0.204500000000     0.0811339  
C357     C      0.753280000000     0.637460000000     0.216020000000    -0.189128   
C358     C      0.583760000000     0.639600000000     0.482730000000    -0.0153587  
C359     C      0.641260000000     0.578560000000     0.480270000000    -0.0448171  
C360     C      0.592090000000     0.646780000000     0.421640000000    -0.0106155  
C361     C      0.646180000000     0.587730000000     0.418830000000     0.081576   
C362     C      0.689560000000     0.569800000000     0.396150000000    -0.189559   
C363     C      0.658990000000     0.920100000000     0.296530000000    -0.0151639  
C364     C      0.598020000000     0.863330000000     0.303030000000    -0.0444286  
C365     C      0.624590000000     0.955560000000     0.306870000000    -0.0104077  
C366     C      0.566160000000     0.900950000000     0.314640000000     0.0816347  
C367     C      0.518340000000     0.888010000000     0.303410000000    -0.189928   
C368     C      0.861760000000     0.603860000000     0.291070000000    -0.0141728  
C369     C      0.920960000000     0.662180000000     0.295880000000    -0.0446944  
C370     C      0.896910000000     0.569390000000     0.302450000000    -0.0111554  
C371     C      0.954020000000     0.625730000000     0.308310000000     0.0817676  
C372     C      0.001360000000     0.639910000000     0.296260000000    -0.1899     
C373     C      0.863350000000     0.920700000000     0.466020000000    -0.015322   
C374     C      0.923130000000     0.862190000000     0.461210000000    -0.044979   
C375     C      0.899430000000     0.955260000000     0.463130000000    -0.0106442  
C376     C      0.956670000000     0.899270000000     0.457040000000     0.0810891  
C377     C      0.003010000000     0.883850000000     0.472370000000    -0.188796   
C378     C      0.842960000000     0.622080000000     0.597010000000    -0.0135287  
C379     C      0.904500000000     0.676700000000     0.582240000000    -0.0402487  
C380     C      0.820150000000     0.638320000000     0.545230000000    -0.00897927 
C381     C      0.867950000000     0.706220000000     0.559490000000     0.0766152  
C382     C      0.843820000000     0.731430000000     0.604620000000    -0.185035   
C383     C      0.686830000000     0.889690000000     0.536120000000    -0.0155911  
C384     C      0.629090000000     0.828930000000     0.537820000000    -0.0440685  
C385     C      0.678800000000     0.896260000000     0.597350000000    -0.0105637  
C386     C      0.624350000000     0.837500000000     0.599430000000     0.0802791  
C387     C      0.580910000000     0.819650000000     0.622000000000    -0.187866   
C388     C      0.910830000000     0.855160000000     0.230740000000    -0.0146115  
C389     C      0.851210000000     0.912900000000     0.224570000000    -0.0451018  
C390     C      0.876110000000     0.820440000000     0.219130000000    -0.0109377  
C391     C      0.818430000000     0.876150000000     0.212530000000     0.0817662  
C392     C      0.770970000000     0.890010000000     0.224400000000    -0.189914   
C393     C      0.924690000000     0.925940000000     0.684960000000     0.392343   
C394     C      0.599480000000     0.597850000000     0.680690000000     0.391663   
C395     C      0.568020000000     0.954030000000     0.735140000000     0.394417   
C396     C      0.954080000000     0.570050000000     0.731450000000     0.394977   
C397     C      0.920550000000     0.601160000000     0.108010000000     0.395812   
C398     C      0.602410000000     0.916210000000     0.117740000000     0.400017   
C399     C      0.953220000000     0.951060000000     0.038400000000     0.405938   
C400     C      0.580380000000     0.577380000000     0.046500000000     0.397303   
C401     C      0.818660000000     0.820740000000     0.789720000000     0.39619    
C402     C      0.703730000000     0.704030000000     0.783630000000     0.395647   
C403     C      0.847250000000     0.675380000000     0.834830000000     0.3915     
C404     C      0.672270000000     0.847630000000     0.838280000000     0.390693   
C405     C      0.690470000000     0.827560000000     0.972220000000     0.396403   
C406     C      0.821400000000     0.697100000000     0.977380000000     0.401774   
C407     C      0.849130000000     0.848580000000     0.924770000000     0.393262   
C408     C      0.668610000000     0.666440000000     0.901160000000     0.400226   
C409     C      0.612890000000     0.670390000000     0.722140000000    -0.0149436  
C410     C      0.673570000000     0.613320000000     0.716390000000    -0.0438537  
C411     C      0.647430000000     0.705660000000     0.711620000000    -0.0104769  
C412     C      0.705600000000     0.650690000000     0.704500000000     0.081133   
C413     C      0.753280000000     0.637460000000     0.716020000000    -0.189127   
C414     C      0.583760000000     0.639600000000     0.982720000000    -0.0153193  
C415     C      0.641260000000     0.578560000000     0.980270000000    -0.0447812  
C416     C      0.592090000000     0.646780000000     0.921640000000    -0.010622   
C417     C      0.646180000000     0.587730000000     0.918830000000     0.0815692  
C418     C      0.689560000000     0.569800000000     0.896150000000    -0.189557   
C419     C      0.658990000000     0.920100000000     0.796530000000    -0.0151518  
C420     C      0.598020000000     0.863330000000     0.803030000000    -0.0444278  
C421     C      0.624590000000     0.955560000000     0.806880000000    -0.0104367  
C422     C      0.566160000000     0.900950000000     0.814640000000     0.0816348  
C423     C      0.518340000000     0.888010000000     0.803410000000    -0.189929   
C424     C      0.861760000000     0.603860000000     0.791070000000    -0.0141726  
C425     C      0.920960000000     0.662180000000     0.795880000000    -0.0446948  
C426     C      0.896910000000     0.569390000000     0.802450000000    -0.011156   
C427     C      0.954020000000     0.625730000000     0.808310000000     0.0817675  
C428     C      0.001360000000     0.639910000000     0.796260000000    -0.189901   
C429     C      0.863350000000     0.920700000000     0.966020000000    -0.0153149  
C430     C      0.923130000000     0.862190000000     0.961210000000    -0.0449648  
C431     C      0.899430000000     0.955260000000     0.963140000000    -0.0106179  
C432     C      0.956670000000     0.899270000000     0.957040000000     0.0810673  
C433     C      0.003010000000     0.883850000000     0.972370000000    -0.188705   
C434     C      0.842960000000     0.622080000000     0.097010000000    -0.0135293  
C435     C      0.904500000000     0.676700000000     0.082240000000    -0.0402393  
C436     C      0.820150000000     0.638320000000     0.045230000000    -0.00897673 
C437     C      0.867950000000     0.706220000000     0.059480000000     0.0766088  
C438     C      0.843820000000     0.731430000000     0.104620000000    -0.185017   
C439     C      0.686830000000     0.889690000000     0.036120000000    -0.0155902  
C440     C      0.629090000000     0.828930000000     0.037820000000    -0.0440677  
C441     C      0.678800000000     0.896260000000     0.097350000000    -0.0105644  
C442     C      0.624350000000     0.837500000000     0.099430000000     0.0802783  
C443     C      0.580910000000     0.819650000000     0.122000000000    -0.187866   
C444     C      0.910830000000     0.855160000000     0.730750000000    -0.014642   
C445     C      0.851210000000     0.912900000000     0.724570000000    -0.0451071  
C446     C      0.876110000000     0.820440000000     0.719130000000    -0.0109216  
C447     C      0.818430000000     0.876150000000     0.712530000000     0.0817726  
C448     C      0.770970000000     0.890010000000     0.724400000000    -0.189917   
Co1      Co     0.448120000000     0.011050000000     0.134470000000     0.837721   
Co2      Co     0.076840000000     0.510100000000     0.635280000000     0.832528   
Co3      Co     0.511540000000     0.446660000000     0.136140000000     0.837346   
Co4      Co     0.512570000000     0.074810000000     0.633890000000     0.840572   
Co5      Co     0.259130000000     0.324670000000     0.386230000000     0.840003   
Co6      Co     0.260090000000     0.196120000000     0.382630000000     0.838902   
Co7      Co     0.323480000000     0.260670000000     0.385550000000     0.840766   
Co8      Co     0.194740000000     0.259970000000     0.383580000000     0.834904   
Co9      Co     0.448120000000     0.011050000000     0.634470000000     0.837684   
Co10     Co     0.076840000000     0.510100000000     0.135270000000     0.832584   
Co11     Co     0.511540000000     0.446660000000     0.636140000000     0.837311   
Co12     Co     0.512570000000     0.074810000000     0.133890000000     0.840608   
Co13     Co     0.259130000000     0.324670000000     0.886230000000     0.840002   
Co14     Co     0.260090000000     0.196120000000     0.882630000000     0.838907   
Co15     Co     0.323480000000     0.260670000000     0.885560000000     0.840783   
Co16     Co     0.194740000000     0.259970000000     0.883580000000     0.83491    
Co17     Co     0.448120000000     0.511050000000     0.134470000000     0.837946   
Co18     Co     0.076840000000     0.010100000000     0.635280000000     0.832338   
Co19     Co     0.511540000000     0.946660000000     0.136140000000     0.837532   
Co20     Co     0.512570000000     0.574810000000     0.633890000000     0.840542   
Co21     Co     0.259130000000     0.824670000000     0.386230000000     0.839962   
Co22     Co     0.260090000000     0.696120000000     0.382630000000     0.838892   
Co23     Co     0.323480000000     0.760670000000     0.385550000000     0.840767   
Co24     Co     0.194740000000     0.759970000000     0.383580000000     0.834901   
Co25     Co     0.448120000000     0.511050000000     0.634470000000     0.837909   
Co26     Co     0.076840000000     0.010100000000     0.135270000000     0.832395   
Co27     Co     0.511540000000     0.946660000000     0.636140000000     0.837497   
Co28     Co     0.512570000000     0.574810000000     0.133890000000     0.840578   
Co29     Co     0.259130000000     0.824670000000     0.886230000000     0.839961   
Co30     Co     0.260090000000     0.696120000000     0.882630000000     0.838898   
Co31     Co     0.323480000000     0.760670000000     0.885560000000     0.840784   
Co32     Co     0.194740000000     0.759970000000     0.883580000000     0.834907   
Co33     Co     0.948120000000     0.011050000000     0.134470000000     0.837859   
Co34     Co     0.576840000000     0.510100000000     0.635280000000     0.832469   
Co35     Co     0.011540000000     0.446660000000     0.136140000000     0.837145   
Co36     Co     0.012570000000     0.074810000000     0.633890000000     0.840384   
Co37     Co     0.759130000000     0.324670000000     0.386230000000     0.840004   
Co38     Co     0.760090000000     0.196120000000     0.382630000000     0.83887    
Co39     Co     0.823480000000     0.260670000000     0.385550000000     0.840724   
Co40     Co     0.694740000000     0.259970000000     0.383580000000     0.834939   
Co41     Co     0.948120000000     0.011050000000     0.634470000000     0.837822   
Co42     Co     0.576840000000     0.510100000000     0.135270000000     0.832525   
Co43     Co     0.011540000000     0.446660000000     0.636140000000     0.83711    
Co44     Co     0.012570000000     0.074810000000     0.133890000000     0.84042    
Co45     Co     0.759130000000     0.324670000000     0.886230000000     0.840003   
Co46     Co     0.760090000000     0.196120000000     0.882630000000     0.838876   
Co47     Co     0.823480000000     0.260670000000     0.885560000000     0.840741   
Co48     Co     0.694740000000     0.259970000000     0.883580000000     0.834945   
Co49     Co     0.948120000000     0.511050000000     0.134470000000     0.838085   
Co50     Co     0.576840000000     0.010100000000     0.635280000000     0.83228    
Co51     Co     0.011540000000     0.946660000000     0.136140000000     0.837332   
Co52     Co     0.012570000000     0.574810000000     0.633890000000     0.840355   
Co53     Co     0.759130000000     0.824670000000     0.386230000000     0.839963   
Co54     Co     0.760090000000     0.696120000000     0.382630000000     0.838861   
Co55     Co     0.823480000000     0.760670000000     0.385550000000     0.840725   
Co56     Co     0.694740000000     0.759970000000     0.383580000000     0.834936   
Co57     Co     0.948120000000     0.511050000000     0.634470000000     0.838047   
Co58     Co     0.576840000000     0.010100000000     0.135270000000     0.832336   
Co59     Co     0.011540000000     0.946660000000     0.636140000000     0.837296   
Co60     Co     0.012570000000     0.574810000000     0.133890000000     0.84039    
Co61     Co     0.759130000000     0.824670000000     0.886230000000     0.839962   
Co62     Co     0.760090000000     0.696120000000     0.882630000000     0.838867   
Co63     Co     0.823480000000     0.760670000000     0.885560000000     0.840743   
Co64     Co     0.694740000000     0.759970000000     0.883580000000     0.834942   
H1       H      0.256770000000     0.120780000000     0.256130000000     0.0879445  
H2       H      0.175470000000     0.104790000000     0.260530000000     0.0496409  
H3       H      0.106370000000     0.168950000000     0.266880000000     0.0446386  
H4       H      0.136670000000     0.237040000000     0.230070000000     0.0450754  
H5       H      0.183730000000     0.084090000000     0.192560000000     0.0545284  
H6       H      0.264190000000     0.113840000000     0.184370000000     0.0621848  
H7       H      0.203900000000     0.156830000000     0.159580000000     0.0176493  
H8       H      0.082020000000     0.180480000000     0.201760000000     0.0446195  
H9       H      0.149930000000     0.210950000000     0.166670000000     0.0352963  
H10      H      0.275110000000     0.166390000000     0.213980000000     0.0768479  
H11      H      0.217850000000     0.079700000000     0.421800000000     0.0859233  
H12      H      0.168810000000     0.094140000000     0.502660000000     0.0519826  
H13      H      0.101090000000     0.165520000000     0.506050000000     0.0451005  
H14      H      0.084190000000     0.181090000000     0.410680000000     0.0442834  
H15      H      0.143530000000     0.042720000000     0.487130000000     0.0523424  
H16      H      0.188540000000     0.033540000000     0.396170000000     0.0639255  
H17      H      0.120020000000     0.068580000000     0.398020000000     0.0166991  
H18      H      0.048180000000     0.143820000000     0.490380000000     0.0469587  
H19      H      0.069350000000     0.125490000000     0.398180000000     0.0337426  
H20      H      0.194430000000     0.080550000000     0.353210000000     0.0813405  
H21      H      0.014730000000     0.371000000000     0.263540000000     0.0880229  
H22      H      0.095910000000     0.354450000000     0.259000000000     0.0497814  
H23      H      0.165440000000     0.418440000000     0.251780000000     0.0446     
H24      H      0.135470000000     0.486810000000     0.288190000000     0.0453112  
H25      H      0.087800000000     0.334350000000     0.327280000000     0.0537422  
H26      H      0.007040000000     0.364930000000     0.335480000000     0.0622124  
H27      H      0.067990000000     0.407340000000     0.359500000000     0.0159379  
H28      H      0.189930000000     0.430150000000     0.316760000000     0.0445156  
H29      H      0.122200000000     0.461060000000     0.351790000000     0.0350753  
H30      H      0.996800000000     0.417170000000     0.304960000000     0.0805548  
H31      H      0.504340000000     0.155850000000     0.255610000000     0.0889295  
H32      H      0.422230000000     0.169890000000     0.251410000000     0.0511157  
H33      H      0.355890000000     0.105100000000     0.246170000000     0.0430443  
H34      H      0.386710000000     0.037600000000     0.284650000000     0.0474334  
H35      H      0.430570000000     0.192090000000     0.318670000000     0.0548907  
H36      H      0.511940000000     0.164250000000     0.327270000000     0.0640497  
H37      H      0.452620000000     0.120220000000     0.353370000000     0.0193276  
H38      H      0.330820000000     0.093160000000     0.310760000000     0.0446473  
H39      H      0.399390000000     0.064800000000     0.347520000000     0.0378185  
H40      H      0.523880000000     0.111550000000     0.299080000000     0.0804708  
H41      H      0.503380000000     0.366150000000     0.512030000000     0.0823214  
H42      H      0.422540000000     0.349730000000     0.503970000000     0.0511576  
H43      H      0.352550000000     0.417560000000     0.509300000000     0.0453541  
H44      H      0.387950000000     0.485680000000     0.483320000000     0.0467926  
H45      H      0.433910000000     0.334910000000     0.434320000000     0.0532015  
H46      H      0.515140000000     0.360760000000     0.440770000000     0.0620802  
H47      H      0.458390000000     0.408250000000     0.412880000000     0.0151674  
H48      H      0.334890000000     0.432590000000     0.441960000000     0.0468896  
H49      H      0.405340000000     0.463230000000     0.419320000000     0.036346   
H50      H      0.525950000000     0.411940000000     0.473510000000     0.0794259  
H51      H      0.324670000000     0.209800000000     0.631790000000     0.0701507  
H52      H      0.419880000000     0.191590000000     0.619060000000     0.0463971  
H53      H      0.328480000000     0.138090000000     0.633360000000     0.0316435  
H54      H      0.284350000000     0.140420000000     0.552850000000     0.0373664  
H55      H      0.430910000000     0.174870000000     0.550960000000     0.0539516  
H56      H      0.367620000000     0.249740000000     0.629950000000     0.0635114  
H57      H      0.384730000000     0.231560000000     0.534490000000     0.0282004  
H58      H      0.336150000000     0.086640000000     0.601550000000     0.0461045  
H59      H      0.324830000000     0.113670000000     0.512280000000     0.0471132  
H60      H      0.320990000000     0.255300000000     0.585790000000     0.0729683  
H61      H      0.052630000000     0.329880000000     0.596540000000     0.0816401  
H62      H      0.101670000000     0.345050000000     0.515760000000     0.0485981  
H63      H      0.169340000000     0.415800000000     0.513320000000     0.0448424  
H64      H      0.186940000000     0.430400000000     0.608860000000     0.0444057  
H65      H      0.126440000000     0.293190000000     0.530340000000     0.0517365  
H66      H      0.081730000000     0.283390000000     0.621560000000     0.0630306  
H67      H      0.150430000000     0.317990000000     0.619850000000     0.0167604  
H68      H      0.222380000000     0.394060000000     0.528290000000     0.0472338  
H69      H      0.201490000000     0.374580000000     0.620340000000     0.0333938  
H70      H      0.076170000000     0.330110000000     0.665090000000     0.0806093  
H71      H      0.267830000000     0.406130000000     0.264920000000     0.0889916  
H72      H      0.349800000000     0.420960000000     0.268920000000     0.0520277  
H73      H      0.416080000000     0.356900000000     0.275730000000     0.0430467  
H74      H      0.386440000000     0.288640000000     0.236790000000     0.044961   
H75      H      0.341390000000     0.442560000000     0.201380000000     0.0553843  
H76      H      0.260210000000     0.414090000000     0.193170000000     0.0640796  
H77      H      0.319860000000     0.370340000000     0.167530000000     0.0173815  
H78      H      0.442090000000     0.344540000000     0.211780000000     0.0432832  
H79      H      0.373960000000     0.316330000000     0.174030000000     0.0332729  
H80      H      0.248680000000     0.361460000000     0.221790000000     0.0800864  
H81      H      0.256770000000     0.120780000000     0.756130000000     0.0879446  
H82      H      0.175470000000     0.104790000000     0.760530000000     0.049642   
H83      H      0.106370000000     0.168950000000     0.766880000000     0.0446388  
H84      H      0.136670000000     0.237040000000     0.730070000000     0.0450756  
H85      H      0.183730000000     0.084090000000     0.692560000000     0.0545297  
H86      H      0.264190000000     0.113840000000     0.684370000000     0.0621852  
H87      H      0.203900000000     0.156830000000     0.659580000000     0.01765    
H88      H      0.082020000000     0.180480000000     0.701760000000     0.0446196  
H89      H      0.149930000000     0.210950000000     0.666670000000     0.035297   
H90      H      0.275110000000     0.166390000000     0.713980000000     0.076848   
H91      H      0.217850000000     0.079700000000     0.921800000000     0.0859262  
H92      H      0.168810000000     0.094140000000     0.002660000000     0.0519609  
H93      H      0.101090000000     0.165520000000     0.006050000000     0.0450764  
H94      H      0.084190000000     0.181090000000     0.910680000000     0.0442873  
H95      H      0.143530000000     0.042720000000     0.987130000000     0.0523401  
H96      H      0.188540000000     0.033540000000     0.896170000000     0.0639266  
H97      H      0.120020000000     0.068580000000     0.898020000000     0.0167019  
H98      H      0.048180000000     0.143820000000     0.990380000000     0.046955   
H99      H      0.069350000000     0.125490000000     0.898180000000     0.0337454  
H100     H      0.194430000000     0.080550000000     0.853210000000     0.0813403  
H101     H      0.014730000000     0.371000000000     0.763540000000     0.0880247  
H102     H      0.095910000000     0.354450000000     0.759000000000     0.0497812  
H103     H      0.165440000000     0.418440000000     0.751780000000     0.0445976  
H104     H      0.135470000000     0.486810000000     0.788190000000     0.0453216  
H105     H      0.087800000000     0.334350000000     0.827280000000     0.0537432  
H106     H      0.007040000000     0.364930000000     0.835480000000     0.0622141  
H107     H      0.067990000000     0.407340000000     0.859500000000     0.0159392  
H108     H      0.189930000000     0.430150000000     0.816760000000     0.0445137  
H109     H      0.122200000000     0.461060000000     0.851790000000     0.0350866  
H110     H      0.996800000000     0.417170000000     0.804960000000     0.0805571  
H111     H      0.504340000000     0.155850000000     0.755610000000     0.08893    
H112     H      0.422230000000     0.169890000000     0.751410000000     0.0511157  
H113     H      0.355890000000     0.105100000000     0.746170000000     0.0430445  
H114     H      0.386710000000     0.037600000000     0.784650000000     0.047435   
H115     H      0.430570000000     0.192090000000     0.818670000000     0.054891   
H116     H      0.511940000000     0.164250000000     0.827270000000     0.0640506  
H117     H      0.452620000000     0.120220000000     0.853370000000     0.0193288  
H118     H      0.330820000000     0.093160000000     0.810760000000     0.0446481  
H119     H      0.399390000000     0.064800000000     0.847520000000     0.03782    
H120     H      0.523880000000     0.111550000000     0.799080000000     0.0804711  
H121     H      0.503380000000     0.366150000000     0.012040000000     0.082272   
H122     H      0.422540000000     0.349730000000     0.003970000000     0.0511408  
H123     H      0.352550000000     0.417560000000     0.009300000000     0.0453388  
H124     H      0.387950000000     0.485680000000     0.983320000000     0.0467915  
H125     H      0.433910000000     0.334910000000     0.934330000000     0.0532071  
H126     H      0.515140000000     0.360760000000     0.940770000000     0.0620652  
H127     H      0.458390000000     0.408250000000     0.912880000000     0.0151735  
H128     H      0.334890000000     0.432590000000     0.941960000000     0.0468927  
H129     H      0.405340000000     0.463230000000     0.919320000000     0.0363386  
H130     H      0.525950000000     0.411940000000     0.973510000000     0.0794086  
H131     H      0.324670000000     0.209800000000     0.131790000000     0.0701469  
H132     H      0.419880000000     0.191590000000     0.119060000000     0.0463955  
H133     H      0.328480000000     0.138090000000     0.133360000000     0.031644   
H134     H      0.284350000000     0.140420000000     0.052850000000     0.0373621  
H135     H      0.430910000000     0.174870000000     0.050960000000     0.0539458  
H136     H      0.367620000000     0.249740000000     0.129950000000     0.0635078  
H137     H      0.384730000000     0.231560000000     0.034500000000     0.028184   
H138     H      0.336150000000     0.086640000000     0.101550000000     0.0461032  
H139     H      0.324830000000     0.113670000000     0.012280000000     0.0471059  
H140     H      0.320990000000     0.255300000000     0.085790000000     0.0729605  
H141     H      0.052630000000     0.329880000000     0.096540000000     0.0816389  
H142     H      0.101670000000     0.345050000000     0.015760000000     0.048593   
H143     H      0.169340000000     0.415800000000     0.013320000000     0.0448358  
H144     H      0.186940000000     0.430400000000     0.108860000000     0.0444047  
H145     H      0.126440000000     0.293190000000     0.030340000000     0.0517314  
H146     H      0.081730000000     0.283390000000     0.121560000000     0.0630296  
H147     H      0.150430000000     0.317990000000     0.119850000000     0.0167599  
H148     H      0.222380000000     0.394060000000     0.028290000000     0.0472278  
H149     H      0.201490000000     0.374580000000     0.120340000000     0.0333933  
H150     H      0.076170000000     0.330110000000     0.165090000000     0.080609   
H151     H      0.267830000000     0.406130000000     0.764920000000     0.0889913  
H152     H      0.349800000000     0.420960000000     0.768920000000     0.0520325  
H153     H      0.416080000000     0.356900000000     0.775730000000     0.0430614  
H154     H      0.386440000000     0.288640000000     0.736790000000     0.0449552  
H155     H      0.341390000000     0.442560000000     0.701380000000     0.0553863  
H156     H      0.260210000000     0.414090000000     0.693170000000     0.0640808  
H157     H      0.319860000000     0.370340000000     0.667530000000     0.0173798  
H158     H      0.442090000000     0.344540000000     0.711780000000     0.0432918  
H159     H      0.373960000000     0.316330000000     0.674030000000     0.0332687  
H160     H      0.248680000000     0.361460000000     0.721790000000     0.0800853  
H161     H      0.256770000000     0.620790000000     0.256130000000     0.0879856  
H162     H      0.175470000000     0.604790000000     0.260530000000     0.0496524  
H163     H      0.106370000000     0.668950000000     0.266880000000     0.0446362  
H164     H      0.136670000000     0.737040000000     0.230070000000     0.0450768  
H165     H      0.183730000000     0.584090000000     0.192560000000     0.0545478  
H166     H      0.264190000000     0.613840000000     0.184370000000     0.0622097  
H167     H      0.203900000000     0.656830000000     0.159580000000     0.0176473  
H168     H      0.082020000000     0.680480000000     0.201760000000     0.0446176  
H169     H      0.149930000000     0.710950000000     0.166670000000     0.0352973  
H170     H      0.275110000000     0.666390000000     0.213980000000     0.0768599  
H171     H      0.217850000000     0.579700000000     0.421800000000     0.0859393  
H172     H      0.168810000000     0.594140000000     0.502660000000     0.0520004  
H173     H      0.101090000000     0.665520000000     0.506050000000     0.0451246  
H174     H      0.084190000000     0.681090000000     0.410680000000     0.0442745  
H175     H      0.143530000000     0.542720000000     0.487130000000     0.0523913  
H176     H      0.188540000000     0.533540000000     0.396170000000     0.0639656  
H177     H      0.120020000000     0.568580000000     0.398020000000     0.0167137  
H178     H      0.048180000000     0.643820000000     0.490380000000     0.0469845  
H179     H      0.069350000000     0.625490000000     0.398180000000     0.0337405  
H180     H      0.194430000000     0.580550000000     0.353210000000     0.0813566  
H181     H      0.014730000000     0.871000000000     0.263540000000     0.0880195  
H182     H      0.095910000000     0.854450000000     0.259000000000     0.049783   
H183     H      0.165440000000     0.918440000000     0.251780000000     0.0445966  
H184     H      0.135470000000     0.986810000000     0.288190000000     0.0453503  
H185     H      0.087800000000     0.834350000000     0.327280000000     0.0537466  
H186     H      0.007040000000     0.864930000000     0.335480000000     0.062215   
H187     H      0.067990000000     0.907340000000     0.359500000000     0.0159442  
H188     H      0.189930000000     0.930150000000     0.316760000000     0.0445255  
H189     H      0.122200000000     0.961060000000     0.351790000000     0.0351075  
H190     H      0.996800000000     0.917170000000     0.304960000000     0.0805719  
H191     H      0.504340000000     0.655850000000     0.255610000000     0.0889451  
H192     H      0.422230000000     0.669890000000     0.251410000000     0.0511169  
H193     H      0.355890000000     0.605100000000     0.246170000000     0.0430491  
H194     H      0.386710000000     0.537600000000     0.284650000000     0.0474664  
H195     H      0.430570000000     0.692090000000     0.318670000000     0.0548923  
H196     H      0.511940000000     0.664250000000     0.327270000000     0.0640649  
H197     H      0.452620000000     0.620220000000     0.353370000000     0.0193288  
H198     H      0.330820000000     0.593160000000     0.310760000000     0.0446584  
H199     H      0.399390000000     0.564800000000     0.347520000000     0.0378412  
H200     H      0.523880000000     0.611560000000     0.299080000000     0.0805196  
H201     H      0.503380000000     0.866150000000     0.512030000000     0.0823157  
H202     H      0.422540000000     0.849730000000     0.503970000000     0.0511503  
H203     H      0.352550000000     0.917570000000     0.509300000000     0.045355   
H204     H      0.387950000000     0.985680000000     0.483320000000     0.0468233  
H205     H      0.433910000000     0.834910000000     0.434320000000     0.0531989  
H206     H      0.515140000000     0.860760000000     0.440770000000     0.0620781  
H207     H      0.458390000000     0.908250000000     0.412880000000     0.0151871  
H208     H      0.334890000000     0.932600000000     0.441960000000     0.046896   
H209     H      0.405340000000     0.963230000000     0.419320000000     0.0363702  
H210     H      0.525950000000     0.911940000000     0.473510000000     0.079439   
H211     H      0.324670000000     0.709800000000     0.631790000000     0.0701499  
H212     H      0.419880000000     0.691590000000     0.619060000000     0.0463979  
H213     H      0.328480000000     0.638090000000     0.633360000000     0.0316477  
H214     H      0.284350000000     0.640420000000     0.552850000000     0.0373698  
H215     H      0.430910000000     0.674870000000     0.550960000000     0.0539539  
H216     H      0.367620000000     0.749740000000     0.629950000000     0.06351    
H217     H      0.384730000000     0.731560000000     0.534490000000     0.0281997  
H218     H      0.336150000000     0.586640000000     0.601550000000     0.0461256  
H219     H      0.324830000000     0.613670000000     0.512280000000     0.0471247  
H220     H      0.320990000000     0.755300000000     0.585790000000     0.0729668  
H221     H      0.052630000000     0.829880000000     0.596540000000     0.0816379  
H222     H      0.101670000000     0.845040000000     0.515760000000     0.0486072  
H223     H      0.169340000000     0.915790000000     0.513320000000     0.0448812  
H224     H      0.186940000000     0.930400000000     0.608860000000     0.0444196  
H225     H      0.126440000000     0.793190000000     0.530340000000     0.0517388  
H226     H      0.081730000000     0.783390000000     0.621560000000     0.0630291  
H227     H      0.150430000000     0.817990000000     0.619850000000     0.0167576  
H228     H      0.222380000000     0.894060000000     0.528290000000     0.0472562  
H229     H      0.201490000000     0.874570000000     0.620340000000     0.0333897  
H230     H      0.076170000000     0.830110000000     0.665090000000     0.0806056  
H231     H      0.267830000000     0.906140000000     0.264920000000     0.0889704  
H232     H      0.349800000000     0.920960000000     0.268920000000     0.052043   
H233     H      0.416080000000     0.856900000000     0.275730000000     0.0430313  
H234     H      0.386440000000     0.788640000000     0.236790000000     0.0449659  
H235     H      0.341390000000     0.942560000000     0.201380000000     0.0554044  
H236     H      0.260210000000     0.914090000000     0.193170000000     0.0640793  
H237     H      0.319860000000     0.870340000000     0.167530000000     0.0173846  
H238     H      0.442090000000     0.844540000000     0.211780000000     0.0432624  
H239     H      0.373960000000     0.816330000000     0.174030000000     0.0332772  
H240     H      0.248680000000     0.861460000000     0.221790000000     0.0800784  
H241     H      0.256770000000     0.620790000000     0.756130000000     0.0879857  
H242     H      0.175470000000     0.604790000000     0.760530000000     0.0496535  
H243     H      0.106370000000     0.668950000000     0.766880000000     0.0446364  
H244     H      0.136670000000     0.737040000000     0.730070000000     0.045077   
H245     H      0.183730000000     0.584090000000     0.692560000000     0.0545492  
H246     H      0.264190000000     0.613840000000     0.684370000000     0.06221    
H247     H      0.203900000000     0.656830000000     0.659580000000     0.0176479  
H248     H      0.082020000000     0.680480000000     0.701760000000     0.0446176  
H249     H      0.149930000000     0.710950000000     0.666670000000     0.035298   
H250     H      0.275110000000     0.666390000000     0.713980000000     0.0768601  
H251     H      0.217850000000     0.579700000000     0.921800000000     0.0859421  
H252     H      0.168810000000     0.594140000000     0.002660000000     0.0519787  
H253     H      0.101090000000     0.665520000000     0.006050000000     0.0451005  
H254     H      0.084190000000     0.681090000000     0.910680000000     0.0442784  
H255     H      0.143530000000     0.542720000000     0.987130000000     0.052389   
H256     H      0.188540000000     0.533540000000     0.896170000000     0.0639667  
H257     H      0.120020000000     0.568580000000     0.898020000000     0.0167165  
H258     H      0.048180000000     0.643820000000     0.990380000000     0.0469808  
H259     H      0.069350000000     0.625490000000     0.898180000000     0.0337433  
H260     H      0.194430000000     0.580550000000     0.853210000000     0.0813565  
H261     H      0.014730000000     0.871000000000     0.763540000000     0.0880213  
H262     H      0.095910000000     0.854450000000     0.759000000000     0.0497828  
H263     H      0.165440000000     0.918440000000     0.751780000000     0.0445942  
H264     H      0.135470000000     0.986810000000     0.788190000000     0.0453607  
H265     H      0.087800000000     0.834350000000     0.827280000000     0.0537475  
H266     H      0.007040000000     0.864930000000     0.835480000000     0.0622167  
H267     H      0.067990000000     0.907340000000     0.859500000000     0.0159455  
H268     H      0.189930000000     0.930150000000     0.816760000000     0.0445236  
H269     H      0.122200000000     0.961060000000     0.851790000000     0.0351187  
H270     H      0.996800000000     0.917170000000     0.804960000000     0.0805743  
H271     H      0.504340000000     0.655850000000     0.755610000000     0.0889456  
H272     H      0.422230000000     0.669890000000     0.751410000000     0.0511169  
H273     H      0.355890000000     0.605100000000     0.746170000000     0.0430492  
H274     H      0.386710000000     0.537600000000     0.784650000000     0.0474681  
H275     H      0.430570000000     0.692090000000     0.818670000000     0.0548925  
H276     H      0.511940000000     0.664250000000     0.827270000000     0.0640657  
H277     H      0.452620000000     0.620220000000     0.853370000000     0.01933    
H278     H      0.330820000000     0.593160000000     0.810760000000     0.0446591  
H279     H      0.399390000000     0.564800000000     0.847520000000     0.0378427  
H280     H      0.523880000000     0.611560000000     0.799080000000     0.0805198  
H281     H      0.503380000000     0.866150000000     0.012040000000     0.0822663  
H282     H      0.422540000000     0.849730000000     0.003970000000     0.0511336  
H283     H      0.352550000000     0.917570000000     0.009300000000     0.0453397  
H284     H      0.387950000000     0.985680000000     0.983320000000     0.0468222  
H285     H      0.433910000000     0.834910000000     0.934330000000     0.0532045  
H286     H      0.515140000000     0.860760000000     0.940770000000     0.0620631  
H287     H      0.458390000000     0.908250000000     0.912880000000     0.0151932  
H288     H      0.334890000000     0.932600000000     0.941960000000     0.0468992  
H289     H      0.405340000000     0.963230000000     0.919320000000     0.0363628  
H290     H      0.525950000000     0.911940000000     0.973510000000     0.0794217  
H291     H      0.324670000000     0.709800000000     0.131790000000     0.070146   
H292     H      0.419880000000     0.691590000000     0.119060000000     0.0463962  
H293     H      0.328480000000     0.638090000000     0.133360000000     0.0316482  
H294     H      0.284350000000     0.640420000000     0.052850000000     0.0373655  
H295     H      0.430910000000     0.674870000000     0.050960000000     0.0539481  
H296     H      0.367620000000     0.749740000000     0.129950000000     0.0635064  
H297     H      0.384730000000     0.731560000000     0.034500000000     0.0281833  
H298     H      0.336150000000     0.586640000000     0.101550000000     0.0461243  
H299     H      0.324830000000     0.613670000000     0.012280000000     0.0471174  
H300     H      0.320990000000     0.755300000000     0.085790000000     0.0729591  
H301     H      0.052630000000     0.829880000000     0.096540000000     0.0816368  
H302     H      0.101670000000     0.845040000000     0.015760000000     0.0486021  
H303     H      0.169340000000     0.915790000000     0.013320000000     0.0448745  
H304     H      0.186940000000     0.930400000000     0.108860000000     0.0444186  
H305     H      0.126440000000     0.793190000000     0.030340000000     0.0517337  
H306     H      0.081730000000     0.783390000000     0.121560000000     0.0630281  
H307     H      0.150430000000     0.817990000000     0.119850000000     0.0167572  
H308     H      0.222380000000     0.894060000000     0.028290000000     0.0472502  
H309     H      0.201490000000     0.874570000000     0.120340000000     0.0333892  
H310     H      0.076170000000     0.830110000000     0.165090000000     0.0806053  
H311     H      0.267830000000     0.906140000000     0.764920000000     0.0889702  
H312     H      0.349800000000     0.920960000000     0.768920000000     0.0520478  
H313     H      0.416080000000     0.856900000000     0.775730000000     0.043046   
H314     H      0.386440000000     0.788640000000     0.736790000000     0.04496    
H315     H      0.341390000000     0.942560000000     0.701380000000     0.0554064  
H316     H      0.260210000000     0.914090000000     0.693170000000     0.0640805  
H317     H      0.319860000000     0.870340000000     0.667530000000     0.017383   
H318     H      0.442090000000     0.844540000000     0.711780000000     0.0432709  
H319     H      0.373960000000     0.816330000000     0.674030000000     0.033273   
H320     H      0.248680000000     0.861460000000     0.721790000000     0.0800773  
H321     H      0.756770000000     0.120780000000     0.256130000000     0.0879766  
H322     H      0.675470000000     0.104790000000     0.260530000000     0.04964    
H323     H      0.606360000000     0.168950000000     0.266880000000     0.0446315  
H324     H      0.636670000000     0.237040000000     0.230070000000     0.0450743  
H325     H      0.683730000000     0.084090000000     0.192560000000     0.0545282  
H326     H      0.764190000000     0.113840000000     0.184370000000     0.062226   
H327     H      0.703900000000     0.156830000000     0.159580000000     0.0176483  
H328     H      0.582020000000     0.180480000000     0.201760000000     0.0446274  
H329     H      0.649930000000     0.210950000000     0.166670000000     0.0352972  
H330     H      0.775100000000     0.166390000000     0.213980000000     0.0769191  
H331     H      0.717850000000     0.079700000000     0.421800000000     0.0859204  
H332     H      0.668820000000     0.094140000000     0.502660000000     0.0519644  
H333     H      0.601090000000     0.165520000000     0.506050000000     0.0451072  
H334     H      0.584190000000     0.181090000000     0.410680000000     0.0442925  
H335     H      0.643530000000     0.042720000000     0.487130000000     0.0523396  
H336     H      0.688540000000     0.033540000000     0.396170000000     0.0639242  
H337     H      0.620020000000     0.068580000000     0.398020000000     0.0167073  
H338     H      0.548180000000     0.143820000000     0.490380000000     0.0469838  
H339     H      0.569350000000     0.125490000000     0.398180000000     0.0337558  
H340     H      0.694430000000     0.080550000000     0.353210000000     0.0813379  
H341     H      0.514730000000     0.371000000000     0.263540000000     0.0880067  
H342     H      0.595910000000     0.354450000000     0.259000000000     0.0497805  
H343     H      0.665440000000     0.418440000000     0.251780000000     0.0446169  
H344     H      0.635470000000     0.486810000000     0.288190000000     0.0453087  
H345     H      0.587800000000     0.334350000000     0.327280000000     0.0537436  
H346     H      0.507040000000     0.364930000000     0.335480000000     0.0622015  
H347     H      0.567990000000     0.407340000000     0.359500000000     0.0159628  
H348     H      0.689930000000     0.430150000000     0.316760000000     0.0445355  
H349     H      0.622200000000     0.461060000000     0.351790000000     0.0350766  
H350     H      0.496790000000     0.417170000000     0.304960000000     0.0803929  
H351     H      0.004340000000     0.155850000000     0.255610000000     0.0889189  
H352     H      0.922230000000     0.169890000000     0.251410000000     0.0511609  
H353     H      0.855890000000     0.105100000000     0.246170000000     0.0430436  
H354     H      0.886710000000     0.037600000000     0.284650000000     0.0474355  
H355     H      0.930570000000     0.192090000000     0.318670000000     0.0549541  
H356     H      0.011940000000     0.164250000000     0.327270000000     0.064051   
H357     H      0.952620000000     0.120220000000     0.353370000000     0.0193282  
H358     H      0.830820000000     0.093160000000     0.310760000000     0.0446492  
H359     H      0.899390000000     0.064800000000     0.347520000000     0.0378269  
H360     H      0.023880000000     0.111550000000     0.299080000000     0.0804727  
H361     H      0.003380000000     0.366150000000     0.512030000000     0.0823262  
H362     H      0.922530000000     0.349730000000     0.503970000000     0.0511905  
H363     H      0.852560000000     0.417560000000     0.509300000000     0.0453617  
H364     H      0.887950000000     0.485680000000     0.483320000000     0.0467958  
H365     H      0.933900000000     0.334910000000     0.434320000000     0.0532519  
H366     H      0.015140000000     0.360760000000     0.440770000000     0.06211    
H367     H      0.958390000000     0.408250000000     0.412880000000     0.0151752  
H368     H      0.834890000000     0.432590000000     0.441960000000     0.0468945  
H369     H      0.905340000000     0.463230000000     0.419320000000     0.0363534  
H370     H      0.025950000000     0.411940000000     0.473510000000     0.0794664  
H371     H      0.824680000000     0.209800000000     0.631790000000     0.0701946  
H372     H      0.919880000000     0.191590000000     0.619060000000     0.0464086  
H373     H      0.828480000000     0.138090000000     0.633360000000     0.0316373  
H374     H      0.784350000000     0.140420000000     0.552850000000     0.0373674  
H375     H      0.930920000000     0.174870000000     0.550960000000     0.0539673  
H376     H      0.867620000000     0.249740000000     0.629950000000     0.06354    
H377     H      0.884730000000     0.231560000000     0.534490000000     0.0281976  
H378     H      0.836150000000     0.086640000000     0.601550000000     0.0461015  
H379     H      0.824830000000     0.113670000000     0.512280000000     0.0471224  
H380     H      0.821000000000     0.255300000000     0.585790000000     0.0730147  
H381     H      0.552630000000     0.329880000000     0.596540000000     0.0816621  
H382     H      0.601670000000     0.345050000000     0.515760000000     0.0486025  
H383     H      0.669340000000     0.415800000000     0.513320000000     0.0448506  
H384     H      0.686940000000     0.430400000000     0.608860000000     0.0444029  
H385     H      0.626440000000     0.293190000000     0.530340000000     0.0517406  
H386     H      0.581730000000     0.283390000000     0.621560000000     0.0630442  
H387     H      0.650430000000     0.317990000000     0.619850000000     0.016759   
H388     H      0.722370000000     0.394060000000     0.528290000000     0.0472463  
H389     H      0.701490000000     0.374580000000     0.620340000000     0.0333908  
H390     H      0.576170000000     0.330110000000     0.665090000000     0.0806215  
H391     H      0.767830000000     0.406130000000     0.264920000000     0.088972   
H392     H      0.849800000000     0.420960000000     0.268920000000     0.0520357  
H393     H      0.916080000000     0.356900000000     0.275730000000     0.0430644  
H394     H      0.886440000000     0.288640000000     0.236790000000     0.0449677  
H395     H      0.841400000000     0.442560000000     0.201380000000     0.0554008  
H396     H      0.760210000000     0.414090000000     0.193170000000     0.0640529  
H397     H      0.819860000000     0.370340000000     0.167530000000     0.0173746  
H398     H      0.942090000000     0.344540000000     0.211780000000     0.0433117  
H399     H      0.873960000000     0.316330000000     0.174030000000     0.0332743  
H400     H      0.748680000000     0.361460000000     0.221790000000     0.080048   
H401     H      0.756770000000     0.120780000000     0.756130000000     0.0879768  
H402     H      0.675470000000     0.104790000000     0.760530000000     0.0496412  
H403     H      0.606360000000     0.168950000000     0.766880000000     0.0446316  
H404     H      0.636670000000     0.237040000000     0.730070000000     0.0450744  
H405     H      0.683730000000     0.084090000000     0.692560000000     0.0545295  
H406     H      0.764190000000     0.113840000000     0.684370000000     0.0622263  
H407     H      0.703900000000     0.156830000000     0.659580000000     0.0176489  
H408     H      0.582020000000     0.180480000000     0.701760000000     0.0446275  
H409     H      0.649930000000     0.210950000000     0.666670000000     0.0352979  
H410     H      0.775100000000     0.166390000000     0.713980000000     0.0769192  
H411     H      0.717850000000     0.079700000000     0.921800000000     0.0859233  
H412     H      0.668820000000     0.094140000000     0.002660000000     0.0519428  
H413     H      0.601090000000     0.165520000000     0.006050000000     0.0450832  
H414     H      0.584190000000     0.181090000000     0.910680000000     0.0442964  
H415     H      0.643530000000     0.042720000000     0.987130000000     0.0523373  
H416     H      0.688540000000     0.033540000000     0.896170000000     0.0639253  
H417     H      0.620020000000     0.068580000000     0.898020000000     0.0167102  
H418     H      0.548180000000     0.143820000000     0.990380000000     0.04698    
H419     H      0.569350000000     0.125490000000     0.898180000000     0.0337586  
H420     H      0.694430000000     0.080550000000     0.853210000000     0.0813378  
H421     H      0.514730000000     0.371000000000     0.763540000000     0.0880086  
H422     H      0.595910000000     0.354450000000     0.759000000000     0.0497803  
H423     H      0.665440000000     0.418440000000     0.751780000000     0.0446145  
H424     H      0.635470000000     0.486810000000     0.788190000000     0.0453191  
H425     H      0.587800000000     0.334350000000     0.827280000000     0.0537445  
H426     H      0.507040000000     0.364930000000     0.835480000000     0.0622032  
H427     H      0.567990000000     0.407340000000     0.859500000000     0.0159641  
H428     H      0.689930000000     0.430150000000     0.816760000000     0.0445336  
H429     H      0.622200000000     0.461060000000     0.851790000000     0.0350878  
H430     H      0.496790000000     0.417170000000     0.804960000000     0.0803952  
H431     H      0.004340000000     0.155850000000     0.755610000000     0.0889194  
H432     H      0.922230000000     0.169890000000     0.751410000000     0.0511609  
H433     H      0.855890000000     0.105100000000     0.746170000000     0.0430438  
H434     H      0.886710000000     0.037600000000     0.784650000000     0.0474372  
H435     H      0.930570000000     0.192090000000     0.818670000000     0.0549544  
H436     H      0.011940000000     0.164250000000     0.827270000000     0.0640518  
H437     H      0.952620000000     0.120220000000     0.853370000000     0.0193294  
H438     H      0.830820000000     0.093160000000     0.810760000000     0.0446499  
H439     H      0.899390000000     0.064800000000     0.847520000000     0.0378284  
H440     H      0.023880000000     0.111550000000     0.799080000000     0.080473   
H441     H      0.003380000000     0.366150000000     0.012040000000     0.0822768  
H442     H      0.922530000000     0.349730000000     0.003970000000     0.0511738  
H443     H      0.852560000000     0.417560000000     0.009300000000     0.0453463  
H444     H      0.887950000000     0.485680000000     0.983320000000     0.0467946  
H445     H      0.933900000000     0.334910000000     0.934330000000     0.0532575  
H446     H      0.015140000000     0.360760000000     0.940770000000     0.062095   
H447     H      0.958390000000     0.408250000000     0.912880000000     0.0151813  
H448     H      0.834890000000     0.432590000000     0.941960000000     0.0468976  
H449     H      0.905340000000     0.463230000000     0.919320000000     0.036346   
H450     H      0.025950000000     0.411940000000     0.973510000000     0.0794491  
H451     H      0.824680000000     0.209800000000     0.131790000000     0.0701907  
H452     H      0.919880000000     0.191590000000     0.119060000000     0.0464069  
H453     H      0.828480000000     0.138090000000     0.133360000000     0.0316378  
H454     H      0.784350000000     0.140420000000     0.052850000000     0.0373631  
H455     H      0.930920000000     0.174870000000     0.050960000000     0.0539615  
H456     H      0.867620000000     0.249740000000     0.129950000000     0.0635364  
H457     H      0.884730000000     0.231560000000     0.034500000000     0.0281812  
H458     H      0.836150000000     0.086640000000     0.101550000000     0.0461001  
H459     H      0.824830000000     0.113670000000     0.012280000000     0.0471151  
H460     H      0.821000000000     0.255300000000     0.085790000000     0.073007   
H461     H      0.552630000000     0.329880000000     0.096540000000     0.0816609  
H462     H      0.601670000000     0.345050000000     0.015760000000     0.0485974  
H463     H      0.669340000000     0.415800000000     0.013320000000     0.044844   
H464     H      0.686940000000     0.430400000000     0.108860000000     0.044402   
H465     H      0.626440000000     0.293190000000     0.030340000000     0.0517355  
H466     H      0.581730000000     0.283390000000     0.121560000000     0.0630432  
H467     H      0.650430000000     0.317990000000     0.119850000000     0.0167586  
H468     H      0.722370000000     0.394060000000     0.028290000000     0.0472403  
H469     H      0.701490000000     0.374580000000     0.120340000000     0.0333903  
H470     H      0.576170000000     0.330110000000     0.165090000000     0.0806213  
H471     H      0.767830000000     0.406130000000     0.764920000000     0.0889717  
H472     H      0.849800000000     0.420960000000     0.768920000000     0.0520405  
H473     H      0.916080000000     0.356900000000     0.775730000000     0.0430791  
H474     H      0.886440000000     0.288640000000     0.736790000000     0.0449618  
H475     H      0.841400000000     0.442560000000     0.701380000000     0.0554028  
H476     H      0.760210000000     0.414090000000     0.693170000000     0.0640541  
H477     H      0.819860000000     0.370340000000     0.667530000000     0.0173729  
H478     H      0.942090000000     0.344540000000     0.711780000000     0.0433203  
H479     H      0.873960000000     0.316330000000     0.674030000000     0.0332701  
H480     H      0.748680000000     0.361460000000     0.721790000000     0.0800469  
H481     H      0.756770000000     0.620790000000     0.256130000000     0.0880177  
H482     H      0.675470000000     0.604790000000     0.260530000000     0.0496516  
H483     H      0.606360000000     0.668950000000     0.266880000000     0.044629   
H484     H      0.636670000000     0.737040000000     0.230070000000     0.0450757  
H485     H      0.683730000000     0.584090000000     0.192560000000     0.0545477  
H486     H      0.764190000000     0.613840000000     0.184370000000     0.0622509  
H487     H      0.703900000000     0.656830000000     0.159580000000     0.0176462  
H488     H      0.582020000000     0.680480000000     0.201760000000     0.0446255  
H489     H      0.649930000000     0.710950000000     0.166670000000     0.0352982  
H490     H      0.775100000000     0.666390000000     0.213980000000     0.0769311  
H491     H      0.717850000000     0.579700000000     0.421800000000     0.0859364  
H492     H      0.668820000000     0.594140000000     0.502660000000     0.0519822  
H493     H      0.601090000000     0.665520000000     0.506050000000     0.0451313  
H494     H      0.584190000000     0.681090000000     0.410680000000     0.0442836  
H495     H      0.643530000000     0.542720000000     0.487130000000     0.0523885  
H496     H      0.688540000000     0.533540000000     0.396170000000     0.0639643  
H497     H      0.620020000000     0.568580000000     0.398020000000     0.0167219  
H498     H      0.548180000000     0.643820000000     0.490380000000     0.0470096  
H499     H      0.569350000000     0.625490000000     0.398180000000     0.0337537  
H500     H      0.694430000000     0.580550000000     0.353210000000     0.081354   
H501     H      0.514730000000     0.871000000000     0.263540000000     0.0880033  
H502     H      0.595910000000     0.854450000000     0.259000000000     0.0497821  
H503     H      0.665440000000     0.918440000000     0.251780000000     0.0446135  
H504     H      0.635470000000     0.986810000000     0.288190000000     0.0453478  
H505     H      0.587800000000     0.834350000000     0.327280000000     0.0537479  
H506     H      0.507040000000     0.864930000000     0.335480000000     0.0622041  
H507     H      0.567990000000     0.907340000000     0.359500000000     0.0159691  
H508     H      0.689930000000     0.930150000000     0.316760000000     0.0445454  
H509     H      0.622200000000     0.961060000000     0.351790000000     0.0351087  
H510     H      0.496790000000     0.917170000000     0.304960000000     0.0804101  
H511     H      0.004340000000     0.655850000000     0.255610000000     0.0889345  
H512     H      0.922230000000     0.669890000000     0.251410000000     0.0511621  
H513     H      0.855890000000     0.605100000000     0.246170000000     0.0430483  
H514     H      0.886710000000     0.537600000000     0.284650000000     0.0474686  
H515     H      0.930570000000     0.692090000000     0.318670000000     0.0549557  
H516     H      0.011940000000     0.664250000000     0.327270000000     0.0640662  
H517     H      0.952620000000     0.620220000000     0.353370000000     0.0193294  
H518     H      0.830820000000     0.593160000000     0.310760000000     0.0446602  
H519     H      0.899390000000     0.564800000000     0.347520000000     0.0378497  
H520     H      0.023880000000     0.611560000000     0.299080000000     0.0805215  
H521     H      0.003380000000     0.866150000000     0.512030000000     0.0823206  
H522     H      0.922530000000     0.849730000000     0.503970000000     0.0511833  
H523     H      0.852560000000     0.917570000000     0.509300000000     0.0453626  
H524     H      0.887950000000     0.985680000000     0.483320000000     0.0468265  
H525     H      0.933900000000     0.834910000000     0.434320000000     0.0532493  
H526     H      0.015140000000     0.860760000000     0.440770000000     0.062108   
H527     H      0.958390000000     0.908250000000     0.412880000000     0.0151949  
H528     H      0.834890000000     0.932600000000     0.441960000000     0.046901   
H529     H      0.905340000000     0.963230000000     0.419320000000     0.0363776  
H530     H      0.025950000000     0.911940000000     0.473510000000     0.0794795  
H531     H      0.824680000000     0.709800000000     0.631790000000     0.0701938  
H532     H      0.919880000000     0.691590000000     0.619060000000     0.0464093  
H533     H      0.828480000000     0.638090000000     0.633360000000     0.0316415  
H534     H      0.784350000000     0.640420000000     0.552850000000     0.0373708  
H535     H      0.930920000000     0.674870000000     0.550960000000     0.0539696  
H536     H      0.867620000000     0.749740000000     0.629950000000     0.0635386  
H537     H      0.884730000000     0.731560000000     0.534490000000     0.0281969  
H538     H      0.836150000000     0.586640000000     0.601550000000     0.0461226  
H539     H      0.824830000000     0.613670000000     0.512280000000     0.0471339  
H540     H      0.821000000000     0.755300000000     0.585790000000     0.0730133  
H541     H      0.552630000000     0.829880000000     0.596540000000     0.0816599  
H542     H      0.601670000000     0.845040000000     0.515760000000     0.0486116  
H543     H      0.669340000000     0.915790000000     0.513320000000     0.0448894  
H544     H      0.686940000000     0.930400000000     0.608860000000     0.0444168  
H545     H      0.626440000000     0.793190000000     0.530340000000     0.0517429  
H546     H      0.581730000000     0.783390000000     0.621560000000     0.0630428  
H547     H      0.650430000000     0.817990000000     0.619850000000     0.0167563  
H548     H      0.722370000000     0.894060000000     0.528290000000     0.0472687  
H549     H      0.701490000000     0.874570000000     0.620340000000     0.0333866  
H550     H      0.576170000000     0.830110000000     0.665090000000     0.0806178  
H551     H      0.767830000000     0.906140000000     0.264920000000     0.0889508  
H552     H      0.849800000000     0.920960000000     0.268920000000     0.052051   
H553     H      0.916080000000     0.856900000000     0.275730000000     0.043049   
H554     H      0.886440000000     0.788640000000     0.236790000000     0.0449726  
H555     H      0.841400000000     0.942560000000     0.201380000000     0.0554209  
H556     H      0.760210000000     0.914090000000     0.193170000000     0.0640526  
H557     H      0.819860000000     0.870340000000     0.167530000000     0.0173777  
H558     H      0.942090000000     0.844540000000     0.211780000000     0.0432909  
H559     H      0.873960000000     0.816330000000     0.174030000000     0.0332786  
H560     H      0.748680000000     0.861460000000     0.221790000000     0.08004    
H561     H      0.756770000000     0.620790000000     0.756130000000     0.0880179  
H562     H      0.675470000000     0.604790000000     0.760530000000     0.0496527  
H563     H      0.606360000000     0.668950000000     0.766880000000     0.0446292  
H564     H      0.636670000000     0.737040000000     0.730070000000     0.0450758  
H565     H      0.683730000000     0.584090000000     0.692560000000     0.054549   
H566     H      0.764190000000     0.613840000000     0.684370000000     0.0622512  
H567     H      0.703900000000     0.656830000000     0.659580000000     0.0176469  
H568     H      0.582020000000     0.680480000000     0.701760000000     0.0446255  
H569     H      0.649930000000     0.710950000000     0.666670000000     0.0352989  
H570     H      0.775100000000     0.666390000000     0.713980000000     0.0769313  
H571     H      0.717850000000     0.579700000000     0.921800000000     0.0859392  
H572     H      0.668820000000     0.594140000000     0.002660000000     0.0519606  
H573     H      0.601090000000     0.665520000000     0.006050000000     0.0451072  
H574     H      0.584190000000     0.681090000000     0.910680000000     0.0442875  
H575     H      0.643530000000     0.542720000000     0.987130000000     0.0523862  
H576     H      0.688540000000     0.533540000000     0.896170000000     0.0639654  
H577     H      0.620020000000     0.568580000000     0.898020000000     0.0167248  
H578     H      0.548180000000     0.643820000000     0.990380000000     0.0470058  
H579     H      0.569350000000     0.625490000000     0.898180000000     0.0337565  
H580     H      0.694430000000     0.580550000000     0.853210000000     0.0813539  
H581     H      0.514730000000     0.871000000000     0.763540000000     0.0880051  
H582     H      0.595910000000     0.854450000000     0.759000000000     0.0497819  
H583     H      0.665440000000     0.918440000000     0.751780000000     0.0446111  
H584     H      0.635470000000     0.986810000000     0.788190000000     0.0453582  
H585     H      0.587800000000     0.834350000000     0.827280000000     0.0537489  
H586     H      0.507040000000     0.864930000000     0.835480000000     0.0622058  
H587     H      0.567990000000     0.907340000000     0.859500000000     0.0159704  
H588     H      0.689930000000     0.930150000000     0.816760000000     0.0445434  
H589     H      0.622200000000     0.961060000000     0.851790000000     0.03512    
H590     H      0.496790000000     0.917170000000     0.804960000000     0.0804124  
H591     H      0.004340000000     0.655850000000     0.755610000000     0.088935   
H592     H      0.922230000000     0.669890000000     0.751410000000     0.0511621  
H593     H      0.855890000000     0.605100000000     0.746170000000     0.0430485  
H594     H      0.886710000000     0.537600000000     0.784650000000     0.0474702  
H595     H      0.930570000000     0.692090000000     0.818670000000     0.054956   
H596     H      0.011940000000     0.664250000000     0.827270000000     0.064067   
H597     H      0.952620000000     0.620220000000     0.853370000000     0.0193306  
H598     H      0.830820000000     0.593160000000     0.810760000000     0.0446609  
H599     H      0.899390000000     0.564800000000     0.847520000000     0.0378512  
H600     H      0.023880000000     0.611560000000     0.799080000000     0.0805218  
H601     H      0.003380000000     0.866150000000     0.012040000000     0.0822711  
H602     H      0.922530000000     0.849730000000     0.003970000000     0.0511665  
H603     H      0.852560000000     0.917570000000     0.009300000000     0.0453472  
H604     H      0.887950000000     0.985680000000     0.983320000000     0.0468253  
H605     H      0.933900000000     0.834910000000     0.934330000000     0.0532549  
H606     H      0.015140000000     0.860760000000     0.940770000000     0.0620929  
H607     H      0.958390000000     0.908250000000     0.912880000000     0.015201   
H608     H      0.834890000000     0.932600000000     0.941960000000     0.0469041  
H609     H      0.905340000000     0.963230000000     0.919320000000     0.0363702  
H610     H      0.025950000000     0.911940000000     0.973510000000     0.0794621  
H611     H      0.824680000000     0.709800000000     0.131790000000     0.0701899  
H612     H      0.919880000000     0.691590000000     0.119060000000     0.0464076  
H613     H      0.828480000000     0.638090000000     0.133360000000     0.031642   
H614     H      0.784350000000     0.640420000000     0.052850000000     0.0373666  
H615     H      0.930920000000     0.674870000000     0.050960000000     0.0539637  
H616     H      0.867620000000     0.749740000000     0.129950000000     0.063535   
H617     H      0.884730000000     0.731560000000     0.034500000000     0.0281805  
H618     H      0.836150000000     0.586640000000     0.101550000000     0.0461212  
H619     H      0.824830000000     0.613670000000     0.012280000000     0.0471266  
H620     H      0.821000000000     0.755300000000     0.085790000000     0.0730055  
H621     H      0.552630000000     0.829880000000     0.096540000000     0.0816588  
H622     H      0.601670000000     0.845040000000     0.015760000000     0.0486065  
H623     H      0.669340000000     0.915790000000     0.013320000000     0.0448827  
H624     H      0.686940000000     0.930400000000     0.108860000000     0.0444158  
H625     H      0.626440000000     0.793190000000     0.030340000000     0.0517378  
H626     H      0.581730000000     0.783390000000     0.121560000000     0.0630418  
H627     H      0.650430000000     0.817990000000     0.119850000000     0.0167559  
H628     H      0.722370000000     0.894060000000     0.028290000000     0.0472628  
H629     H      0.701490000000     0.874570000000     0.120340000000     0.0333862  
H630     H      0.576170000000     0.830110000000     0.165090000000     0.0806176  
H631     H      0.767830000000     0.906140000000     0.764920000000     0.0889506  
H632     H      0.849800000000     0.920960000000     0.768920000000     0.0520558  
H633     H      0.916080000000     0.856900000000     0.775730000000     0.0430637  
H634     H      0.886440000000     0.788640000000     0.736790000000     0.0449667  
H635     H      0.841400000000     0.942560000000     0.701380000000     0.0554229  
H636     H      0.760210000000     0.914090000000     0.693170000000     0.0640538  
H637     H      0.819860000000     0.870340000000     0.667530000000     0.0173761  
H638     H      0.942090000000     0.844540000000     0.711780000000     0.0432994  
H639     H      0.873960000000     0.816330000000     0.674030000000     0.0332744  
H640     H      0.748680000000     0.861460000000     0.721790000000     0.080039   
N1       N      0.189560000000     0.190170000000     0.233190000000    -0.176672   
N2       N      0.128150000000     0.126800000000     0.203810000000    -0.159655   
N3       N      0.137520000000     0.134700000000     0.409410000000    -0.176261   
N4       N      0.099700000000     0.096470000000     0.501950000000    -0.160651   
N5       N      0.082330000000     0.440160000000     0.285540000000    -0.176157   
N6       N      0.143610000000     0.376650000000     0.315190000000    -0.15949    
N7       N      0.438850000000     0.085360000000     0.280750000000    -0.175941   
N8       N      0.376070000000     0.147660000000     0.309630000000    -0.159884   
N9       N      0.439520000000     0.437330000000     0.487630000000    -0.177195   
N10      N      0.378550000000     0.377390000000     0.446790000000    -0.159791   
N11      N      0.336510000000     0.180980000000     0.526070000000    -0.175542   
N12      N      0.389970000000     0.132050000000     0.595220000000    -0.159552   
N13      N      0.133340000000     0.384330000000     0.609520000000    -0.176371   
N14      N      0.170810000000     0.346700000000     0.516490000000    -0.160984   
N15      N      0.333960000000     0.336100000000     0.240510000000    -0.177165   
N16      N      0.396210000000     0.398510000000     0.211110000000    -0.160333   
N17      N      0.189560000000     0.190170000000     0.733190000000    -0.176672   
N18      N      0.128150000000     0.126800000000     0.703810000000    -0.159658   
N19      N      0.137520000000     0.134700000000     0.909410000000    -0.176258   
N20      N      0.099700000000     0.096470000000     0.001940000000    -0.160641   
N21      N      0.082330000000     0.440160000000     0.785540000000    -0.176153   
N22      N      0.143610000000     0.376650000000     0.815190000000    -0.159491   
N23      N      0.438850000000     0.085360000000     0.780750000000    -0.17594    
N24      N      0.376070000000     0.147660000000     0.809630000000    -0.159883   
N25      N      0.439520000000     0.437330000000     0.987630000000    -0.177187   
N26      N      0.378550000000     0.377390000000     0.946780000000    -0.159809   
N27      N      0.336510000000     0.180980000000     0.026070000000    -0.175557   
N28      N      0.389970000000     0.132050000000     0.095220000000    -0.159554   
N29      N      0.133340000000     0.384330000000     0.109520000000    -0.176372   
N30      N      0.170810000000     0.346700000000     0.016490000000    -0.160995   
N31      N      0.333960000000     0.336100000000     0.740510000000    -0.177192   
N32      N      0.396210000000     0.398510000000     0.711110000000    -0.160311   
N33      N      0.189560000000     0.690170000000     0.233190000000    -0.176652   
N34      N      0.128150000000     0.626800000000     0.203810000000    -0.159652   
N35      N      0.137520000000     0.634700000000     0.409410000000    -0.176268   
N36      N      0.099700000000     0.596470000000     0.501950000000    -0.160629   
N37      N      0.082330000000     0.940160000000     0.285540000000    -0.176168   
N38      N      0.143610000000     0.876660000000     0.315190000000    -0.159454   
N39      N      0.438850000000     0.585360000000     0.280750000000    -0.175937   
N40      N      0.376070000000     0.647660000000     0.309630000000    -0.159883   
N41      N      0.439520000000     0.937340000000     0.487630000000    -0.177208   
N42      N      0.378550000000     0.877390000000     0.446790000000    -0.159792   
N43      N      0.336510000000     0.680980000000     0.526070000000    -0.175542   
N44      N      0.389970000000     0.632050000000     0.595220000000    -0.15952    
N45      N      0.133340000000     0.884330000000     0.609520000000    -0.176372   
N46      N      0.170810000000     0.846700000000     0.516490000000    -0.160957   
N47      N      0.333960000000     0.836100000000     0.240510000000    -0.177159   
N48      N      0.396210000000     0.898510000000     0.211110000000    -0.160337   
N49      N      0.189560000000     0.690170000000     0.733190000000    -0.176652   
N50      N      0.128150000000     0.626800000000     0.703810000000    -0.159655   
N51      N      0.137520000000     0.634700000000     0.909410000000    -0.176264   
N52      N      0.099700000000     0.596470000000     0.001940000000    -0.160619   
N53      N      0.082330000000     0.940160000000     0.785540000000    -0.176164   
N54      N      0.143610000000     0.876660000000     0.815190000000    -0.159455   
N55      N      0.438850000000     0.585360000000     0.780750000000    -0.175936   
N56      N      0.376070000000     0.647660000000     0.809630000000    -0.159882   
N57      N      0.439520000000     0.937340000000     0.987630000000    -0.1772     
N58      N      0.378550000000     0.877390000000     0.946780000000    -0.159809   
N59      N      0.336510000000     0.680980000000     0.026070000000    -0.175558   
N60      N      0.389970000000     0.632050000000     0.095220000000    -0.159523   
N61      N      0.133340000000     0.884330000000     0.109520000000    -0.176374   
N62      N      0.170810000000     0.846700000000     0.016490000000    -0.160968   
N63      N      0.333960000000     0.836100000000     0.740510000000    -0.177187   
N64      N      0.396210000000     0.898510000000     0.711110000000    -0.160316   
N65      N      0.689560000000     0.190170000000     0.233190000000    -0.176694   
N66      N      0.628150000000     0.126800000000     0.203810000000    -0.159654   
N67      N      0.637520000000     0.134700000000     0.409410000000    -0.17626    
N68      N      0.599700000000     0.096470000000     0.501950000000    -0.160633   
N69      N      0.582330000000     0.440160000000     0.285540000000    -0.176143   
N70      N      0.643610000000     0.376650000000     0.315190000000    -0.159482   
N71      N      0.938850000000     0.085360000000     0.280750000000    -0.175946   
N72      N      0.876070000000     0.147660000000     0.309630000000    -0.159878   
N73      N      0.939520000000     0.437330000000     0.487630000000    -0.177196   
N74      N      0.878550000000     0.377390000000     0.446790000000    -0.159784   
N75      N      0.836520000000     0.180980000000     0.526070000000    -0.175529   
N76      N      0.889970000000     0.132050000000     0.595220000000    -0.159549   
N77      N      0.633340000000     0.384330000000     0.609520000000    -0.176373   
N78      N      0.670810000000     0.346700000000     0.516490000000    -0.16098    
N79      N      0.833960000000     0.336100000000     0.240510000000    -0.177169   
N80      N      0.896210000000     0.398510000000     0.211110000000    -0.160325   
N81      N      0.689560000000     0.190170000000     0.733190000000    -0.176694   
N82      N      0.628150000000     0.126800000000     0.703810000000    -0.159657   
N83      N      0.637520000000     0.134700000000     0.909410000000    -0.176257   
N84      N      0.599700000000     0.096470000000     0.001940000000    -0.160623   
N85      N      0.582330000000     0.440160000000     0.785540000000    -0.17614    
N86      N      0.643610000000     0.376650000000     0.815190000000    -0.159484   
N87      N      0.938850000000     0.085360000000     0.780750000000    -0.175945   
N88      N      0.876070000000     0.147660000000     0.809630000000    -0.159877   
N89      N      0.939520000000     0.437330000000     0.987630000000    -0.177188   
N90      N      0.878550000000     0.377390000000     0.946780000000    -0.159802   
N91      N      0.836520000000     0.180980000000     0.026070000000    -0.175544   
N92      N      0.889970000000     0.132050000000     0.095220000000    -0.159551   
N93      N      0.633340000000     0.384330000000     0.109520000000    -0.176374   
N94      N      0.670810000000     0.346700000000     0.016490000000    -0.160991   
N95      N      0.833960000000     0.336100000000     0.740510000000    -0.177196   
N96      N      0.896210000000     0.398510000000     0.711110000000    -0.160304   
N97      N      0.689560000000     0.690170000000     0.233190000000    -0.176674   
N98      N      0.628150000000     0.626800000000     0.203810000000    -0.159652   
N99      N      0.637520000000     0.634700000000     0.409410000000    -0.176266   
N100     N      0.599700000000     0.596470000000     0.501950000000    -0.160611   
N101     N      0.582330000000     0.940160000000     0.285540000000    -0.176154   
N102     N      0.643610000000     0.876660000000     0.315190000000    -0.159446   
N103     N      0.938850000000     0.585360000000     0.280750000000    -0.175942   
N104     N      0.876070000000     0.647660000000     0.309630000000    -0.159877   
N105     N      0.939520000000     0.937340000000     0.487630000000    -0.177209   
N106     N      0.878550000000     0.877390000000     0.446790000000    -0.159785   
N107     N      0.836520000000     0.680980000000     0.526070000000    -0.175529   
N108     N      0.889970000000     0.632050000000     0.595220000000    -0.159517   
N109     N      0.633340000000     0.884330000000     0.609520000000    -0.176374   
N110     N      0.670810000000     0.846700000000     0.516490000000    -0.160953   
N111     N      0.833960000000     0.836100000000     0.240510000000    -0.177164   
N112     N      0.896210000000     0.898510000000     0.211110000000    -0.16033    
N113     N      0.689560000000     0.690170000000     0.733190000000    -0.176674   
N114     N      0.628150000000     0.626800000000     0.703810000000    -0.159655   
N115     N      0.637520000000     0.634700000000     0.909410000000    -0.176263   
N116     N      0.599700000000     0.596470000000     0.001940000000    -0.160601   
N117     N      0.582330000000     0.940160000000     0.785540000000    -0.176151   
N118     N      0.643610000000     0.876660000000     0.815190000000    -0.159447   
N119     N      0.938850000000     0.585360000000     0.780750000000    -0.175941   
N120     N      0.876070000000     0.647660000000     0.809630000000    -0.159876   
N121     N      0.939520000000     0.937340000000     0.987630000000    -0.177201   
N122     N      0.878550000000     0.877390000000     0.946780000000    -0.159802   
N123     N      0.836520000000     0.680980000000     0.026070000000    -0.175544   
N124     N      0.889970000000     0.632050000000     0.095220000000    -0.15952    
N125     N      0.633340000000     0.884330000000     0.109520000000    -0.176376   
N126     N      0.670810000000     0.846700000000     0.016490000000    -0.160963   
N127     N      0.833960000000     0.836100000000     0.740510000000    -0.177191   
N128     N      0.896210000000     0.898510000000     0.711110000000    -0.160308   
O1       O      0.412220000000     0.464310000000     0.171780000000    -0.369091   
O2       O      0.112370000000     0.059240000000     0.168860000000    -0.363318   
O3       O      0.036270000000     0.434620000000     0.211590000000    -0.379135   
O4       O      0.485620000000     0.089350000000     0.207390000000    -0.381777   
O5       O      0.088320000000     0.485020000000     0.210910000000    -0.376489   
O6       O      0.435000000000     0.037590000000     0.208770000000    -0.37518    
O7       O      0.060280000000     0.109890000000     0.170780000000    -0.367426   
O8       O      0.463460000000     0.412910000000     0.174290000000    -0.373246   
O9       O      0.408550000000     0.061940000000     0.617200000000    -0.366349   
O10      O      0.114440000000     0.456150000000     0.621750000000    -0.367407   
O11      O      0.484570000000     0.431590000000     0.562700000000    -0.380601   
O12      O      0.046510000000     0.095080000000     0.567600000000    -0.37013    
O13      O      0.097160000000     0.042940000000     0.567490000000    -0.369391   
O14      O      0.434070000000     0.483430000000     0.561120000000    -0.374685   
O15      O      0.460820000000     0.112230000000     0.611280000000    -0.367834   
O16      O      0.062170000000     0.405970000000     0.621660000000    -0.374619   
O17      O      0.512530000000     0.510420000000     0.110600000000    -0.579276   
O18      O      0.286980000000     0.339920000000     0.313600000000    -0.38554    
O19      O      0.235280000000     0.184480000000     0.307290000000    -0.382007   
O20      O      0.359310000000     0.214110000000     0.347170000000    -0.368037   
O21      O      0.159220000000     0.309140000000     0.350260000000    -0.363686   
O22      O      0.308610000000     0.162130000000     0.345780000000    -0.369826   
O23      O      0.211580000000     0.359520000000     0.348120000000    -0.366484   
O24      O      0.183470000000     0.235100000000     0.307760000000    -0.377343   
O25      O      0.337500000000     0.288060000000     0.312140000000    -0.381523   
O26      O      0.224450000000     0.345300000000     0.451530000000    -0.369347   
O27      O      0.290760000000     0.176990000000     0.452210000000    -0.374433   
O28      O      0.361380000000     0.309730000000     0.413660000000    -0.367323   
O29      O      0.156750000000     0.206410000000     0.397090000000    -0.368154   
O30      O      0.208830000000     0.156050000000     0.397290000000    -0.373129   
O31      O      0.309570000000     0.360590000000     0.416660000000    -0.367366   
O32      O      0.173960000000     0.293000000000     0.451150000000    -0.369133   
O33      O      0.338070000000     0.231940000000     0.457700000000    -0.37327    
O34      O      0.258910000000     0.259920000000     0.408390000000    -0.582141   
O35      O      0.412220000000     0.464310000000     0.671780000000    -0.36911    
O36      O      0.112370000000     0.059240000000     0.668870000000    -0.363336   
O37      O      0.036270000000     0.434620000000     0.711590000000    -0.379137   
O38      O      0.485620000000     0.089350000000     0.707390000000    -0.381776   
O39      O      0.088320000000     0.485020000000     0.710910000000    -0.376525   
O40      O      0.435000000000     0.037590000000     0.708770000000    -0.375176   
O41      O      0.060280000000     0.109890000000     0.670780000000    -0.367433   
O42      O      0.463460000000     0.412910000000     0.674290000000    -0.373262   
O43      O      0.408550000000     0.061940000000     0.117200000000    -0.366356   
O44      O      0.114440000000     0.456150000000     0.121750000000    -0.367427   
O45      O      0.484570000000     0.431590000000     0.062700000000    -0.380609   
O46      O      0.046510000000     0.095080000000     0.067600000000    -0.370134   
O47      O      0.097160000000     0.042940000000     0.067490000000    -0.369428   
O48      O      0.434070000000     0.483430000000     0.061120000000    -0.374693   
O49      O      0.460820000000     0.112230000000     0.111280000000    -0.367842   
O50      O      0.062170000000     0.405970000000     0.121660000000    -0.374629   
O51      O      0.512530000000     0.510420000000     0.610590000000    -0.579193   
O52      O      0.286980000000     0.339920000000     0.813600000000    -0.385487   
O53      O      0.235280000000     0.184480000000     0.807290000000    -0.382007   
O54      O      0.359310000000     0.214110000000     0.847170000000    -0.368019   
O55      O      0.159220000000     0.309140000000     0.850260000000    -0.363686   
O56      O      0.308610000000     0.162130000000     0.845780000000    -0.369823   
O57      O      0.211580000000     0.359520000000     0.848120000000    -0.366485   
O58      O      0.183470000000     0.235100000000     0.807760000000    -0.377343   
O59      O      0.337500000000     0.288060000000     0.812140000000    -0.381435   
O60      O      0.224450000000     0.345300000000     0.951530000000    -0.369347   
O61      O      0.290760000000     0.176990000000     0.952210000000    -0.37444    
O62      O      0.361380000000     0.309730000000     0.913660000000    -0.367347   
O63      O      0.156750000000     0.206410000000     0.897090000000    -0.368153   
O64      O      0.208830000000     0.156050000000     0.897290000000    -0.373128   
O65      O      0.309570000000     0.360590000000     0.916660000000    -0.367373   
O66      O      0.173960000000     0.293000000000     0.951150000000    -0.369132   
O67      O      0.338070000000     0.231940000000     0.957700000000    -0.373316   
O68      O      0.258910000000     0.259920000000     0.908390000000    -0.582154   
O69      O      0.412220000000     0.964310000000     0.171780000000    -0.36901    
O70      O      0.112370000000     0.559240000000     0.168860000000    -0.363309   
O71      O      0.036270000000     0.934630000000     0.211590000000    -0.379214   
O72      O      0.485620000000     0.589350000000     0.207390000000    -0.381776   
O73      O      0.088320000000     0.985020000000     0.210910000000    -0.376425   
O74      O      0.435000000000     0.537590000000     0.208770000000    -0.375168   
O75      O      0.060280000000     0.609890000000     0.170780000000    -0.367425   
O76      O      0.463460000000     0.912910000000     0.174290000000    -0.373253   
O77      O      0.408550000000     0.561940000000     0.617200000000    -0.366432   
O78      O      0.114440000000     0.956150000000     0.621750000000    -0.367334   
O79      O      0.484570000000     0.931590000000     0.562700000000    -0.380636   
O80      O      0.046510000000     0.595080000000     0.567600000000    -0.370126   
O81      O      0.097160000000     0.542940000000     0.567490000000    -0.369383   
O82      O      0.434070000000     0.983430000000     0.561120000000    -0.374532   
O83      O      0.460820000000     0.612230000000     0.611280000000    -0.367829   
O84      O      0.062170000000     0.905970000000     0.621660000000    -0.374629   
O85      O      0.512530000000     0.010420000000     0.110600000000    -0.579311   
O86      O      0.286980000000     0.839920000000     0.313600000000    -0.385528   
O87      O      0.235280000000     0.684480000000     0.307290000000    -0.381978   
O88      O      0.359310000000     0.714110000000     0.347170000000    -0.368038   
O89      O      0.159220000000     0.809140000000     0.350260000000    -0.36367    
O90      O      0.308610000000     0.662130000000     0.345780000000    -0.369825   
O91      O      0.211580000000     0.859520000000     0.348120000000    -0.366457   
O92      O      0.183470000000     0.735110000000     0.307760000000    -0.377277   
O93      O      0.337500000000     0.788060000000     0.312140000000    -0.381522   
O94      O      0.224450000000     0.845310000000     0.451530000000    -0.369262   
O95      O      0.290760000000     0.676990000000     0.452210000000    -0.37443    
O96      O      0.361380000000     0.809730000000     0.413660000000    -0.367324   
O97      O      0.156750000000     0.706410000000     0.397090000000    -0.368162   
O98      O      0.208830000000     0.656050000000     0.397290000000    -0.37313    
O99      O      0.309570000000     0.860590000000     0.416660000000    -0.367355   
O100     O      0.173960000000     0.793000000000     0.451150000000    -0.369115   
O101     O      0.338070000000     0.731940000000     0.457700000000    -0.373271   
O102     O      0.258910000000     0.759920000000     0.408390000000    -0.582143   
O103     O      0.412220000000     0.964310000000     0.671780000000    -0.369029   
O104     O      0.112370000000     0.559240000000     0.668870000000    -0.363326   
O105     O      0.036270000000     0.934630000000     0.711590000000    -0.379216   
O106     O      0.485620000000     0.589350000000     0.707390000000    -0.381774   
O107     O      0.088320000000     0.985020000000     0.710910000000    -0.376461   
O108     O      0.435000000000     0.537590000000     0.708770000000    -0.375164   
O109     O      0.060280000000     0.609890000000     0.670780000000    -0.367432   
O110     O      0.463460000000     0.912910000000     0.674290000000    -0.37327    
O111     O      0.408550000000     0.561940000000     0.117200000000    -0.36644    
O112     O      0.114440000000     0.956150000000     0.121750000000    -0.367354   
O113     O      0.484570000000     0.931590000000     0.062700000000    -0.380644   
O114     O      0.046510000000     0.595080000000     0.067600000000    -0.370131   
O115     O      0.097160000000     0.542940000000     0.067490000000    -0.369421   
O116     O      0.434070000000     0.983430000000     0.061120000000    -0.37454    
O117     O      0.460820000000     0.612230000000     0.111280000000    -0.367837   
O118     O      0.062170000000     0.905970000000     0.121660000000    -0.374639   
O119     O      0.512530000000     0.010420000000     0.610590000000    -0.579228   
O120     O      0.286980000000     0.839920000000     0.813600000000    -0.385475   
O121     O      0.235280000000     0.684480000000     0.807290000000    -0.381978   
O122     O      0.359310000000     0.714110000000     0.847170000000    -0.368019   
O123     O      0.159220000000     0.809140000000     0.850260000000    -0.36367    
O124     O      0.308610000000     0.662130000000     0.845780000000    -0.369822   
O125     O      0.211580000000     0.859520000000     0.848120000000    -0.366458   
O126     O      0.183470000000     0.735110000000     0.807760000000    -0.377277   
O127     O      0.337500000000     0.788060000000     0.812140000000    -0.381434   
O128     O      0.224450000000     0.845310000000     0.951530000000    -0.369262   
O129     O      0.290760000000     0.676990000000     0.952210000000    -0.374437   
O130     O      0.361380000000     0.809730000000     0.913660000000    -0.367348   
O131     O      0.156750000000     0.706410000000     0.897090000000    -0.368161   
O132     O      0.208830000000     0.656050000000     0.897290000000    -0.373129   
O133     O      0.309570000000     0.860590000000     0.916660000000    -0.367362   
O134     O      0.173960000000     0.793000000000     0.951150000000    -0.369114   
O135     O      0.338070000000     0.731940000000     0.957700000000    -0.373317   
O136     O      0.258910000000     0.759920000000     0.908390000000    -0.582156   
O137     O      0.912220000000     0.464310000000     0.171780000000    -0.369095   
O138     O      0.612370000000     0.059240000000     0.168860000000    -0.363313   
O139     O      0.536270000000     0.434620000000     0.211590000000    -0.379116   
O140     O      0.985620000000     0.089350000000     0.207390000000    -0.381679   
O141     O      0.588320000000     0.485020000000     0.210910000000    -0.376481   
O142     O      0.935000000000     0.037590000000     0.208770000000    -0.375175   
O143     O      0.560280000000     0.109890000000     0.170780000000    -0.367422   
O144     O      0.963460000000     0.412910000000     0.174290000000    -0.373161   
O145     O      0.908550000000     0.061940000000     0.617200000000    -0.366352   
O146     O      0.614440000000     0.456150000000     0.621750000000    -0.367403   
O147     O      0.984570000000     0.431590000000     0.562700000000    -0.380497   
O148     O      0.546510000000     0.095080000000     0.567600000000    -0.370107   
O149     O      0.597170000000     0.042940000000     0.567490000000    -0.369315   
O150     O      0.934070000000     0.483430000000     0.561120000000    -0.374676   
O151     O      0.960820000000     0.112230000000     0.611280000000    -0.367756   
O152     O      0.562170000000     0.405970000000     0.621660000000    -0.374623   
O153     O      0.012530000000     0.510420000000     0.110600000000    -0.57931    
O154     O      0.786980000000     0.339920000000     0.313600000000    -0.385539   
O155     O      0.735280000000     0.184480000000     0.307290000000    -0.382038   
O156     O      0.859320000000     0.214110000000     0.347170000000    -0.367992   
O157     O      0.659220000000     0.309140000000     0.350260000000    -0.363688   
O158     O      0.808620000000     0.162130000000     0.345780000000    -0.36988    
O159     O      0.711580000000     0.359520000000     0.348120000000    -0.366484   
O160     O      0.683480000000     0.235100000000     0.307760000000    -0.377427   
O161     O      0.837500000000     0.288060000000     0.312140000000    -0.381521   
O162     O      0.724450000000     0.345300000000     0.451530000000    -0.369349   
O163     O      0.790760000000     0.176990000000     0.452210000000    -0.374426   
O164     O      0.861380000000     0.309730000000     0.413660000000    -0.367313   
O165     O      0.656750000000     0.206410000000     0.397090000000    -0.368157   
O166     O      0.708830000000     0.156050000000     0.397290000000    -0.373128   
O167     O      0.809570000000     0.360590000000     0.416660000000    -0.367364   
O168     O      0.673960000000     0.293000000000     0.451150000000    -0.369137   
O169     O      0.838070000000     0.231940000000     0.457700000000    -0.373254   
O170     O      0.758910000000     0.259920000000     0.408390000000    -0.582137   
O171     O      0.912220000000     0.464310000000     0.671780000000    -0.369114   
O172     O      0.612370000000     0.059240000000     0.668870000000    -0.36333    
O173     O      0.536270000000     0.434620000000     0.711590000000    -0.379118   
O174     O      0.985620000000     0.089350000000     0.707390000000    -0.381677   
O175     O      0.588320000000     0.485020000000     0.710910000000    -0.376517   
O176     O      0.935000000000     0.037590000000     0.708770000000    -0.375171   
O177     O      0.560280000000     0.109890000000     0.670780000000    -0.367428   
O178     O      0.963460000000     0.412910000000     0.674290000000    -0.373178   
O179     O      0.908550000000     0.061940000000     0.117200000000    -0.36636    
O180     O      0.614440000000     0.456150000000     0.121750000000    -0.367423   
O181     O      0.984570000000     0.431590000000     0.062700000000    -0.380505   
O182     O      0.546510000000     0.095080000000     0.067600000000    -0.370112   
O183     O      0.597170000000     0.042940000000     0.067490000000    -0.369352   
O184     O      0.934070000000     0.483430000000     0.061120000000    -0.374685   
O185     O      0.960820000000     0.112230000000     0.111280000000    -0.367764   
O186     O      0.562170000000     0.405970000000     0.121660000000    -0.374633   
O187     O      0.012530000000     0.510420000000     0.610590000000    -0.579227   
O188     O      0.786980000000     0.339920000000     0.813600000000    -0.385486   
O189     O      0.735280000000     0.184480000000     0.807290000000    -0.382038   
O190     O      0.859320000000     0.214110000000     0.847170000000    -0.367974   
O191     O      0.659220000000     0.309140000000     0.850260000000    -0.363688   
O192     O      0.808620000000     0.162130000000     0.845780000000    -0.369877   
O193     O      0.711580000000     0.359520000000     0.848120000000    -0.366485   
O194     O      0.683480000000     0.235100000000     0.807760000000    -0.377427   
O195     O      0.837500000000     0.288060000000     0.812140000000    -0.381434   
O196     O      0.724450000000     0.345300000000     0.951530000000    -0.369348   
O197     O      0.790760000000     0.176990000000     0.952210000000    -0.374432   
O198     O      0.861380000000     0.309730000000     0.913660000000    -0.367337   
O199     O      0.656750000000     0.206410000000     0.897090000000    -0.368156   
O200     O      0.708830000000     0.156050000000     0.897290000000    -0.373127   
O201     O      0.809570000000     0.360590000000     0.916660000000    -0.367371   
O202     O      0.673960000000     0.293000000000     0.951150000000    -0.369136   
O203     O      0.838070000000     0.231940000000     0.957700000000    -0.3733     
O204     O      0.758910000000     0.259920000000     0.908390000000    -0.58215    
O205     O      0.912220000000     0.964310000000     0.171780000000    -0.369014   
O206     O      0.612370000000     0.559240000000     0.168860000000    -0.363303   
O207     O      0.536270000000     0.934630000000     0.211590000000    -0.379195   
O208     O      0.985620000000     0.589350000000     0.207390000000    -0.381677   
O209     O      0.588320000000     0.985020000000     0.210910000000    -0.376417   
O210     O      0.935000000000     0.537590000000     0.208770000000    -0.375163   
O211     O      0.560280000000     0.609890000000     0.170780000000    -0.367421   
O212     O      0.963460000000     0.912910000000     0.174290000000    -0.373169   
O213     O      0.908550000000     0.561940000000     0.617200000000    -0.366435   
O214     O      0.614440000000     0.956150000000     0.621750000000    -0.367331   
O215     O      0.984570000000     0.931590000000     0.562700000000    -0.380532   
O216     O      0.546510000000     0.595080000000     0.567600000000    -0.370104   
O217     O      0.597170000000     0.542940000000     0.567490000000    -0.369307   
O218     O      0.934070000000     0.983430000000     0.561120000000    -0.374523   
O219     O      0.960820000000     0.612230000000     0.611280000000    -0.367751   
O220     O      0.562170000000     0.905970000000     0.621660000000    -0.374633   
O221     O      0.012530000000     0.010420000000     0.110600000000    -0.579345   
O222     O      0.786980000000     0.839920000000     0.313600000000    -0.385527   
O223     O      0.735280000000     0.684480000000     0.307290000000    -0.382009   
O224     O      0.859320000000     0.714110000000     0.347170000000    -0.367993   
O225     O      0.659220000000     0.809140000000     0.350260000000    -0.363672   
O226     O      0.808620000000     0.662130000000     0.345780000000    -0.369879   
O227     O      0.711580000000     0.859520000000     0.348120000000    -0.366456   
O228     O      0.683480000000     0.735110000000     0.307760000000    -0.377361   
O229     O      0.837500000000     0.788060000000     0.312140000000    -0.38152    
O230     O      0.724450000000     0.845310000000     0.451530000000    -0.369264   
O231     O      0.790760000000     0.676990000000     0.452210000000    -0.374423   
O232     O      0.861380000000     0.809730000000     0.413660000000    -0.367314   
O233     O      0.656750000000     0.706410000000     0.397090000000    -0.368165   
O234     O      0.708830000000     0.656050000000     0.397290000000    -0.373129   
O235     O      0.809570000000     0.860590000000     0.416660000000    -0.367354   
O236     O      0.673960000000     0.793000000000     0.451150000000    -0.369119   
O237     O      0.838070000000     0.731940000000     0.457700000000    -0.373255   
O238     O      0.758910000000     0.759920000000     0.408390000000    -0.582138   
O239     O      0.912220000000     0.964310000000     0.671780000000    -0.369033   
O240     O      0.612370000000     0.559240000000     0.668870000000    -0.36332    
O241     O      0.536270000000     0.934630000000     0.711590000000    -0.379197   
O242     O      0.985620000000     0.589350000000     0.707390000000    -0.381676   
O243     O      0.588320000000     0.985020000000     0.710910000000    -0.376453   
O244     O      0.935000000000     0.537590000000     0.708770000000    -0.375159   
O245     O      0.560280000000     0.609890000000     0.670780000000    -0.367427   
O246     O      0.963460000000     0.912910000000     0.674290000000    -0.373185   
O247     O      0.908550000000     0.561940000000     0.117200000000    -0.366443   
O248     O      0.614440000000     0.956150000000     0.121750000000    -0.367351   
O249     O      0.984570000000     0.931590000000     0.062700000000    -0.38054    
O250     O      0.546510000000     0.595080000000     0.067600000000    -0.370108   
O251     O      0.597170000000     0.542940000000     0.067490000000    -0.369344   
O252     O      0.934070000000     0.983430000000     0.061120000000    -0.374531   
O253     O      0.960820000000     0.612230000000     0.111280000000    -0.367759   
O254     O      0.562170000000     0.905970000000     0.121660000000    -0.374643   
O255     O      0.012530000000     0.010420000000     0.610590000000    -0.579262   
O256     O      0.786980000000     0.839920000000     0.813600000000    -0.385473   
O257     O      0.735280000000     0.684480000000     0.807290000000    -0.382008   
O258     O      0.859320000000     0.714110000000     0.847170000000    -0.367974   
O259     O      0.659220000000     0.809140000000     0.850260000000    -0.363672   
O260     O      0.808620000000     0.662130000000     0.845780000000    -0.369876   
O261     O      0.711580000000     0.859520000000     0.848120000000    -0.366458   
O262     O      0.683480000000     0.735110000000     0.807760000000    -0.377361   
O263     O      0.837500000000     0.788060000000     0.812140000000    -0.381433   
O264     O      0.724450000000     0.845310000000     0.951530000000    -0.369263   
O265     O      0.790760000000     0.676990000000     0.952210000000    -0.374429   
O266     O      0.861380000000     0.809730000000     0.913660000000    -0.367337   
O267     O      0.656750000000     0.706410000000     0.897090000000    -0.368164   
O268     O      0.708830000000     0.656050000000     0.897290000000    -0.373128   
O269     O      0.809570000000     0.860590000000     0.916660000000    -0.367361   
O270     O      0.673960000000     0.793000000000     0.951150000000    -0.369118   
O271     O      0.838070000000     0.731940000000     0.957700000000    -0.373301   
O272     O      0.758910000000     0.759920000000     0.908390000000    -0.582152   


