data_structure

_audit_creation_method RASPA-1.0
_audit_creation_date 2023-6-4
_audit_author_name 'Poobodin Mano'

_cell_length_a    23.3858
_cell_length_b    24.4019
_cell_length_c    24.6447
_cell_angle_alpha 87.1374
_cell_angle_beta  93.8173
_cell_angle_gamma 120.433
_cell_volume      12097

_symmetry_cell_setting          triclinic
_symmetry_space_group_name_Hall 'P 1'
_symmetry_space_group_name_H-M  'P 1'
_symmetry_Int_Tables_number     1

_symmetry_equiv_pos_as_xyz 'x,y,z'

loop_
_atom_site_label
_atom_site_type_symbol
_atom_site_fract_x
_atom_site_fract_y
_atom_site_fract_z
_atom_site_charge
C1       C      0.057140000000     0.164970000000     0.021040000000     0.384328   
C2       C      0.935280000000     0.902210000000     0.030660000000     0.458016   
C3       C      0.078210000000     0.071280000000     0.927930000000     0.42534    
C4       C      0.961500000000     0.067130000000     0.150940000000     0.326448   
C5       C      0.100540000000     0.045920000000     0.195470000000     0.456923   
C6       C      0.211940000000     0.054080000000     0.993200000000     0.429989   
C7       C      0.192150000000     0.188830000000     0.110140000000     0.354076   
C8       C      0.082560000000     0.905010000000     0.078670000000     0.432048   
C9       C      0.094860000000     0.051700000000     0.421870000000     0.423152   
C10      C      0.086910000000     0.193010000000     0.617840000000     0.302746   
C11      C      0.917000000000     0.040120000000     0.537740000000     0.417441   
C12      C      0.185560000000     0.174030000000     0.502870000000     0.399456   
C13      C      0.210320000000     0.090200000000     0.615030000000     0.35785    
C14      C      0.946740000000     0.919170000000     0.587900000000     0.4137     
C15      C      0.050840000000     0.920030000000     0.508610000000     0.426314   
C16      C      0.046180000000     0.065100000000     0.697350000000     0.310874   
C17      C      0.944880000000     0.398040000000     0.974080000000     0.408582   
C18      C      0.118930000000     0.703340000000     0.012790000000     0.375529   
C19      C      0.909690000000     0.529180000000     0.039510000000     0.464016   
C20      C      0.098870000000     0.568040000000     0.907380000000     0.416833   
C21      C      0.243230000000     0.599540000000     0.006500000000     0.333323   
C22      C      0.007900000000     0.519980000000     0.166410000000     0.420466   
C23      C      0.056460000000     0.395920000000     0.072720000000     0.406845   
C24      C      0.177490000000     0.647840000000     0.119970000000     0.394637   
C25      C      0.915890000000     0.427300000000     0.497270000000     0.459673   
C26      C      0.104220000000     0.723440000000     0.520260000000     0.335727   
C27      C      0.944500000000     0.575050000000     0.565500000000     0.398362   
C28      C      0.061550000000     0.536560000000     0.401670000000     0.385981   
C29      C      0.188790000000     0.552780000000     0.510150000000     0.4093     
C30      C      0.061320000000     0.573730000000     0.671690000000     0.388615   
C31      C      0.038850000000     0.392410000000     0.554460000000     0.316122   
C32      C      0.211890000000     0.674480000000     0.575390000000     0.430951   
C33      C      0.431540000000     0.019800000000     0.022620000000     0.413866   
C34      C      0.600310000000     0.922230000000     0.008730000000     0.381095   
C35      C      0.584860000000     0.072970000000     0.925460000000     0.307479   
C36      C      0.417750000000     0.890220000000     0.118680000000     0.424997   
C37      C      0.555440000000     0.985280000000     0.206970000000     0.437837   
C38      C      0.717780000000     0.148490000000     0.005810000000     0.304882   
C39      C      0.553130000000     0.157400000000     0.087480000000     0.392237   
C40      C      0.694520000000     0.022340000000     0.122150000000     0.390264   
C41      C      0.402810000000     0.041360000000     0.524900000000     0.429992   
C42      C      0.552440000000     0.930560000000     0.507640000000     0.395315   
C43      C      0.564700000000     0.044970000000     0.424890000000     0.415463   
C44      C      0.451220000000     0.894840000000     0.638450000000     0.336721   
C45      C      0.565990000000     0.051680000000     0.693880000000     0.447787   
C46      C      0.682030000000     0.192050000000     0.496180000000     0.429924   
C47      C      0.535650000000     0.174570000000     0.584790000000     0.440831   
C48      C      0.680230000000     0.022600000000     0.603190000000     0.370186   
C49      C      0.421100000000     0.381250000000     0.998900000000     0.384044   
C50      C      0.579230000000     0.677010000000     0.010380000000     0.400016   
C51      C      0.458580000000     0.569570000000     0.083610000000     0.419606   
C52      C      0.519720000000     0.482570000000     0.902900000000     0.39534    
C53      C      0.678220000000     0.528990000000     0.971520000000     0.402091   
C54      C      0.541650000000     0.506000000000     0.175590000000     0.398905   
C55      C      0.534770000000     0.387400000000     0.102650000000     0.368217   
C56      C      0.710430000000     0.651100000000     0.039630000000     0.41655    
C57      C      0.410550000000     0.408550000000     0.509380000000     0.312188   
C58      C      0.570000000000     0.706020000000     0.513480000000     0.432452   
C59      C      0.437750000000     0.569080000000     0.561100000000     0.405882   
C60      C      0.568500000000     0.533180000000     0.409960000000     0.386627   
C61      C      0.693170000000     0.564280000000     0.521740000000     0.400901   
C62      C      0.516120000000     0.516590000000     0.670810000000     0.390133   
C63      C      0.542160000000     0.402970000000     0.565790000000     0.30939    
C64      C      0.707380000000     0.696180000000     0.580010000000     0.445922   
C65      C      0.557490000000     0.474980000000     0.812300000000     0.000125985
C66      C      0.509600000000     0.476330000000     0.842860000000    -0.0954397  
C67      C      0.458740000000     0.482990000000     0.815130000000     0.000895959
C68      C      0.457510000000     0.490920000000     0.758280000000    -0.0013005  
C69      C      0.508390000000     0.494470000000     0.728400000000    -0.0890349  
C70      C      0.557490000000     0.485020000000     0.755780000000     0.00118456 
C71      C      0.596810000000     0.503470000000     0.266560000000     0.000707591
C72      C      0.545200000000     0.506330000000     0.236140000000    -0.0994898  
C73      C      0.499130000000     0.513870000000     0.264010000000     0.00136985 
C74      C      0.506230000000     0.521350000000     0.320540000000    -0.00161459 
C75      C      0.558160000000     0.519230000000     0.350920000000    -0.0883932  
C76      C      0.602530000000     0.508730000000     0.323530000000    -0.00346264 
C77      C      0.603650000000     0.870520000000     0.473760000000    -0.0062749  
C78      C      0.548340000000     0.869910000000     0.493980000000    -0.0865877  
C79      C      0.495070000000     0.811500000000     0.511190000000    -0.00350489 
C80      C      0.500840000000     0.757060000000     0.515490000000     0.009962   
C81      C      0.558350000000     0.759140000000     0.499460000000    -0.114109   
C82      C      0.608380000000     0.815430000000     0.476200000000     0.0100215  
C83      C      0.489010000000     0.238940000000     0.616530000000     0.0191242  
C84      C      0.543880000000     0.234960000000     0.602250000000    -0.121128   
C85      C      0.603840000000     0.291080000000     0.592000000000     0.0211118  
C86      C      0.605520000000     0.348800000000     0.586150000000    -0.0205323  
C87      C      0.547830000000     0.351150000000     0.592370000000    -0.0480988  
C88      C      0.490880000000     0.297190000000     0.611280000000    -0.0242971  
C89      C      0.600120000000     0.028310000000     0.841900000000    -0.0211593  
C90      C      0.586050000000     0.071030000000     0.865860000000    -0.0435045  
C91      C      0.575210000000     0.113470000000     0.832390000000    -0.0236983  
C92      C      0.574440000000     0.110700000000     0.776010000000     0.0226718  
C93      C      0.584630000000     0.065540000000     0.751920000000    -0.120956   
C94      C      0.599640000000     0.025730000000     0.785330000000     0.0223646  
C95      C      0.494330000000     0.970420000000     0.288300000000     0.0112025  
C96      C      0.551460000000     0.977790000000     0.265710000000    -0.115929   
C97      C      0.609630000000     0.997960000000     0.298110000000     0.00749014 
C98      C      0.612370000000     0.015950000000     0.351440000000     0.00241763 
C99      C      0.557270000000     0.015170000000     0.372410000000    -0.100563   
C100     C      0.497170000000     0.989080000000     0.341420000000    -0.00158594 
C101     C      0.654210000000     0.855640000000     0.020770000000    -0.00734425 
C102     C      0.603890000000     0.864970000000     0.996300000000    -0.0911523  
C103     C      0.549550000000     0.813590000000     0.969000000000    -0.00545545 
C104     C      0.543720000000     0.753260000000     0.969020000000    -0.00230816 
C105     C      0.590630000000     0.742420000000     0.998510000000    -0.102381   
C106     C      0.647310000000     0.795040000000     0.022370000000     0.00192671 
C107     C      0.602990000000     0.276120000000     0.085560000000     0.00274277 
C108     C      0.549290000000     0.215710000000     0.096900000000    -0.0936955  
C109     C      0.490990000000     0.211670000000     0.114690000000    -0.00129801 
C110     C      0.485980000000     0.266830000000     0.119100000000    -0.00820887 
C111     C      0.539470000000     0.327550000000     0.106330000000    -0.0846875  
C112     C      0.598590000000     0.330890000000     0.091010000000    -0.0115861  
C113     C      0.793110000000     0.368670000000     0.484740000000     0.00980929 
C114     C      0.854060000000     0.372790000000     0.476860000000    -0.117604   
C115     C      0.855510000000     0.317540000000     0.466050000000     0.00758205 
C116     C      0.798210000000     0.258230000000     0.469910000000     0.00742695 
C117     C      0.738430000000     0.253870000000     0.482040000000    -0.109429   
C118     C      0.735030000000     0.309270000000     0.485920000000     0.00588125 
C119     C      0.332300000000     0.724300000000     0.604060000000     0.0121461  
C120     C      0.271630000000     0.722660000000     0.605100000000    -0.111722   
C121     C      0.269800000000     0.773100000000     0.628230000000     0.0143123  
C122     C      0.328620000000     0.827520000000     0.644530000000    -0.0124454  
C123     C      0.390140000000     0.831660000000     0.639270000000    -0.0601608  
C124     C      0.391050000000     0.777700000000     0.622860000000    -0.0152892  
C125     C      0.810750000000     0.603270000000     0.498310000000    -0.00126453 
C126     C      0.758490000000     0.569260000000     0.533250000000    -0.0985127  
C127     C      0.768420000000     0.538320000000     0.579600000000     0.000876149
C128     C      0.829040000000     0.540910000000     0.590540000000     0.000138759
C129     C      0.881240000000     0.574630000000     0.555490000000    -0.0939785  
C130     C      0.871400000000     0.605680000000     0.509240000000    -0.0013715  
C131     C      0.271930000000     0.552040000000     0.577870000000    -0.00211218 
C132     C      0.255650000000     0.563860000000     0.524250000000    -0.103946   
C133     C      0.302930000000     0.584490000000     0.484620000000     0.00243925 
C134     C      0.364200000000     0.589340000000     0.497680000000    -0.000444015
C135     C      0.379670000000     0.576020000000     0.550900000000    -0.104025   
C136     C      0.334060000000     0.558960000000     0.591300000000     0.00365175 
C137     C      0.050430000000     0.516750000000     0.817940000000     0.00331623 
C138     C      0.085140000000     0.573260000000     0.847680000000    -0.0965463  
C139     C      0.108630000000     0.631590000000     0.818880000000     0.00388918 
C140     C      0.099300000000     0.632780000000     0.761550000000     0.000289269
C141     C      0.067220000000     0.575740000000     0.732270000000    -0.086872   
C142     C      0.042160000000     0.518010000000     0.761520000000    -0.00127419 
C143     C      0.025650000000     0.474420000000     0.256410000000     0.00696216 
C144     C      0.018110000000     0.521800000000     0.226990000000    -0.104628   
C145     C      0.023710000000     0.572520000000     0.255870000000     0.00645816 
C146     C      0.037000000000     0.576240000000     0.312210000000    -0.00770896 
C147     C      0.045620000000     0.529590000000     0.341710000000    -0.0824009  
C148     C      0.039350000000     0.478320000000     0.313060000000    -0.00509598 
C149     C      0.892870000000     0.278490000000     0.971940000000     0.0132417  
C150     C      0.886250000000     0.332710000000     0.969760000000    -0.111478   
C151     C      0.822610000000     0.324400000000     0.974660000000     0.0105855  
C152     C      0.768510000000     0.264800000000     0.986570000000    -0.0235546  
C153     C      0.775910000000     0.211260000000     0.992500000000    -0.0466766  
C154     C      0.838110000000     0.218220000000     0.983170000000    -0.0233986  
C155     C      0.301750000000     0.712040000000     0.130750000000    -0.00374725 
C156     C      0.240090000000     0.706910000000     0.137590000000    -0.0823487  
C157     C      0.239570000000     0.763110000000     0.148290000000    -0.00364628 
C158     C      0.297820000000     0.823190000000     0.145490000000     0.00603515 
C159     C      0.357660000000     0.828160000000     0.131900000000    -0.109027   
C160     C      0.359370000000     0.771650000000     0.127210000000     0.0140231  
C161     C      0.788970000000     0.467400000000     0.009670000000     0.0103262  
C162     C      0.849900000000     0.524240000000     0.010460000000    -0.116961   
C163     C      0.854540000000     0.577760000000     0.981390000000     0.01215    
C164     C      0.797880000000     0.576670000000     0.958040000000     0.000353235
C165     C      0.735890000000     0.522210000000     0.963440000000    -0.104964   
C166     C      0.732740000000     0.466060000000     0.985110000000     0.00591636 
C167     C      0.290550000000     0.544950000000     0.065050000000    -0.0191848  
C168     C      0.301640000000     0.598830000000     0.033490000000    -0.0547091  
C169     C      0.366790000000     0.651180000000     0.032360000000    -0.0220911  
C170     C      0.420110000000     0.646450000000     0.057530000000     0.0138702  
C171     C      0.408840000000     0.589640000000     0.083860000000    -0.113038   
C172     C      0.343150000000     0.540820000000     0.090360000000     0.0198692  
C173     C      0.851620000000     0.842520000000     0.641380000000    -0.00163639 
C174     C      0.900270000000     0.853860000000     0.604930000000    -0.0947896  
C175     C      0.889350000000     0.805650000000     0.569820000000     0.000564045
C176     C      0.827360000000     0.750880000000     0.565300000000     0.0122784  
C177     C      0.775970000000     0.742870000000     0.596840000000    -0.119109   
C178     C      0.789490000000     0.786700000000     0.637580000000     0.0130385  
C179     C      0.233070000000     0.290330000000     0.486560000000     0.0139057  
C180     C      0.237870000000     0.235660000000     0.481080000000    -0.100794   
C181     C      0.298610000000     0.243070000000     0.466650000000     0.0112063  
C182     C      0.355790000000     0.303320000000     0.467410000000    -0.0192905  
C183     C      0.352270000000     0.356210000000     0.482340000000    -0.0496074  
C184     C      0.290210000000     0.350160000000     0.488230000000    -0.0142699  
C185     C      0.850210000000     0.090600000000     0.546080000000     0.00722171 
C186     C      0.852260000000     0.035720000000     0.536310000000    -0.105832   
C187     C      0.796400000000     0.975820000000     0.546690000000     0.00510956 
C188     C      0.740310000000     0.970910000000     0.568680000000    -0.00229839 
C189     C      0.739370000000     0.025970000000     0.580990000000    -0.0956661  
C190     C      0.794400000000     0.085840000000     0.568190000000    -0.015121   
C191     C      0.315980000000     0.129050000000     0.565750000000    -0.0119585  
C192     C      0.267160000000     0.083880000000     0.599460000000    -0.100578   
C193     C      0.264120000000     0.025010000000     0.608990000000    -0.0170254  
C194     C      0.306600000000     0.010500000000     0.583740000000    -0.00167508 
C195     C      0.353350000000     0.054370000000     0.547870000000    -0.117634   
C196     C      0.357710000000     0.114100000000     0.539510000000     0.00705737 
C197     C      0.025400000000     0.817160000000     0.471030000000     0.0168013  
C198     C      0.070370000000     0.874830000000     0.495430000000    -0.128962   
C199     C      0.132760000000     0.885960000000     0.516390000000     0.0285804  
C200     C      0.145310000000     0.836590000000     0.521980000000    -0.0210094  
C201     C      0.097030000000     0.776920000000     0.503860000000    -0.0599324  
C202     C      0.039420000000     0.768020000000     0.474640000000    -0.0160343  
C203     C      0.117500000000     0.355080000000     0.578100000000    -0.0010624  
C204     C      0.052990000000     0.344970000000     0.578800000000    -0.0594391  
C205     C      0.001860000000     0.288140000000     0.599810000000    -0.00574787 
C206     C      0.014160000000     0.239500000000     0.616260000000    -0.0100145  
C207     C      0.077960000000     0.248110000000     0.612790000000    -0.0502049  
C208     C      0.130230000000     0.307100000000     0.595890000000    -0.0107211  
C209     C      0.125430000000     0.110100000000     0.837690000000     0.0217692  
C210     C      0.069620000000     0.078190000000     0.869410000000    -0.117959   
C211     C      0.006010000000     0.044020000000     0.844240000000     0.020107   
C212     C      0.998430000000     0.039440000000     0.788070000000    -0.0215422  
C213     C      0.054440000000     0.068760000000     0.756430000000    -0.0447093  
C214     C      0.117900000000     0.105040000000     0.781440000000    -0.0219307  
C215     C      0.129450000000     0.109810000000     0.278180000000     0.0101278  
C216     C      0.121130000000     0.055160000000     0.253390000000    -0.116716   
C217     C      0.115780000000     0.004250000000     0.286060000000     0.0067719  
C218     C      0.111110000000     0.005070000000     0.342000000000     0.0038546  
C219     C      0.110490000000     0.056130000000     0.365250000000    -0.10961    
C220     C      0.122490000000     0.109600000000     0.333750000000     0.00359316 
C221     C      0.861440000000     0.796380000000     0.989980000000     0.0116232  
C222     C      0.879550000000     0.836500000000     0.034270000000    -0.126783   
C223     C      0.847340000000     0.811940000000     0.083410000000     0.0124451  
C224     C      0.796200000000     0.748620000000     0.087460000000    -0.00434714 
C225     C      0.775700000000     0.709520000000     0.042060000000    -0.102044   
C226     C      0.809260000000     0.733900000000     0.993550000000    -0.00299412 
C227     C      0.355190000000     0.273780000000     0.041760000000     0.00577584 
C228     C      0.359270000000     0.330580000000     0.023140000000    -0.109977   
C229     C      0.309050000000     0.343100000000     0.036610000000    -0.0122251  
C230     C      0.256180000000     0.299560000000     0.068080000000    -0.00627313 
C231     C      0.252420000000     0.242670000000     0.086450000000    -0.100603   
C232     C      0.303940000000     0.231610000000     0.074190000000    -0.0223182  
C233     C      0.880380000000     0.105810000000     0.157230000000    -0.0156648  
C234     C      0.892890000000     0.055100000000     0.157730000000    -0.0582605  
C235     C      0.837940000000     0.992700000000     0.155420000000    -0.0137559  
C236     C      0.772860000000     0.981660000000     0.148240000000     0.00470625 
C237     C      0.760930000000     0.032730000000     0.142530000000    -0.092919   
C238     C      0.815400000000     0.094830000000     0.149220000000     0.00569137 
C239     C      0.333080000000     0.098730000000     0.992690000000     0.0097931  
C240     C      0.269080000000     0.046410000000     0.985190000000    -0.111622   
C241     C      0.260700000000     0.985890000000     0.977940000000     0.0113885  
C242     C      0.315430000000     0.976870000000     0.984620000000    -0.00506022 
C243     C      0.378840000000     0.028840000000     0.996310000000    -0.0925366  
C244     C      0.387600000000     0.090120000000     0.997360000000    -1.2037e-05 
C245     C      0.166610000000     0.813520000000     0.050710000000    -0.00670798 
C246     C      0.111700000000     0.753870000000     0.037920000000    -0.0981498  
C247     C      0.047830000000     0.741980000000     0.049330000000    -0.0156278  
C248     C      0.038700000000     0.789260000000     0.069990000000     0.00502394 
C249     C      0.093110000000     0.850080000000     0.079200000000    -0.110698   
C250     C      0.157380000000     0.861030000000     0.071220000000     0.00366156 
C251     C      0.998650000000     0.220070000000     0.053740000000    -0.00375229 
C252     C      0.051600000000     0.223160000000     0.026770000000    -0.0796506  
C253     C      0.105050000000     0.283800000000     0.014120000000    -0.00720143 
C254     C      0.107650000000     0.339240000000     0.030860000000     0.00211099 
C255     C      0.056040000000     0.336170000000     0.059810000000    -0.101406   
C256     C      0.000970000000     0.275640000000     0.070260000000     0.00442809 
Co1      Co     0.054280000000     0.096640000000     0.105740000000     1.06894    
Co2      Co     0.072870000000     0.981290000000     0.996500000000     1.14853    
Co3      Co     0.158990000000     0.121180000000     0.028880000000     1.0511     
Co4      Co     0.010140000000     0.969850000000     0.116000000000     0.985942   
Co5      Co     0.136430000000     0.037740000000     0.532570000000     1.15882    
Co6      Co     0.019660000000     0.048120000000     0.610260000000     1.03148    
Co7      Co     0.990750000000     0.997850000000     0.488970000000     1.1076     
Co8      Co     0.116260000000     0.127420000000     0.593860000000     0.896267   
Co9      Co     0.092770000000     0.484000000000     0.994940000000     0.986905   
Co10     Co     0.040920000000     0.607450000000     0.069140000000     1.10007    
Co11     Co     0.969640000000     0.455260000000     0.069250000000     1.07916    
Co12     Co     0.153800000000     0.608810000000     0.015980000000     1.00831    
Co13     Co     0.054170000000     0.479740000000     0.509520000000     1.20171    
Co14     Co     0.080250000000     0.629190000000     0.564920000000     1.13616    
Co15     Co     0.992510000000     0.487330000000     0.591870000000     0.972214   
Co16     Co     0.129250000000     0.626280000000     0.479200000000     0.935185   
Co17     Co     0.501530000000     0.032390000000     0.129290000000     1.12856    
Co18     Co     0.640180000000     0.050610000000     0.031020000000     0.868997   
Co19     Co     0.568730000000     0.076530000000     0.012760000000     0.906153   
Co20     Co     0.547950000000     0.931350000000     0.099940000000     1.09861    
Co21     Co     0.474930000000     0.034740000000     0.608210000000     0.997043   
Co22     Co     0.644690000000     0.070830000000     0.525350000000     1.06439    
Co23     Co     0.541850000000     0.114330000000     0.494390000000     1.12723    
Co24     Co     0.542150000000     0.975310000000     0.601070000000     1.04566    
Co25     Co     0.565700000000     0.449860000000     0.010400000000     1.05698    
Co26     Co     0.597050000000     0.597560000000     0.096430000000     1.05281    
Co27     Co     0.464140000000     0.462190000000     0.073120000000     1.0489     
Co28     Co     0.593360000000     0.584620000000     0.964200000000     1.04734    
Co29     Co     0.557170000000     0.489130000000     0.519220000000     0.867277   
Co30     Co     0.573870000000     0.625300000000     0.606230000000     1.12245    
Co31     Co     0.486940000000     0.488720000000     0.559840000000     0.874943   
Co32     Co     0.623980000000     0.632430000000     0.482100000000     1.11559    
H1       H      0.597840000000     0.470920000000     0.832450000000     0.0456786  
H2       H      0.421560000000     0.484800000000     0.837720000000     0.0472671  
H3       H      0.419500000000     0.498710000000     0.738220000000     0.0440181  
H4       H      0.597410000000     0.487790000000     0.733640000000     0.0485713  
H5       H      0.633070000000     0.497760000000     0.246210000000     0.046353   
H6       H      0.459140000000     0.516750000000     0.241800000000     0.044311   
H7       H      0.471370000000     0.529460000000     0.340570000000     0.0487628  
H8       H      0.643330000000     0.507420000000     0.345850000000     0.0451046  
H9       H      0.645420000000     0.914500000000     0.459610000000     0.0422927  
H10      H      0.450910000000     0.808960000000     0.525030000000     0.0489981  
H11      H      0.461610000000     0.714190000000     0.533560000000     0.0331737  
H12      H      0.653280000000     0.818100000000     0.463670000000     0.0306844  
H13      H      0.442810000000     0.196460000000     0.625940000000     0.0394971  
H14      H      0.647520000000     0.289270000000     0.582960000000     0.0386398  
H15      H      0.649970000000     0.390240000000     0.571880000000     0.0488117  
H16      H      0.445850000000     0.298470000000     0.616100000000     0.0544023  
H17      H      0.609960000000     0.995830000000     0.866740000000     0.0600997  
H18      H      0.565520000000     0.147790000000     0.849610000000     0.0588362  
H19      H      0.562740000000     0.142000000000     0.751210000000     0.0427783  
H20      H      0.607040000000     0.990050000000     0.767860000000     0.047363   
H21      H      0.449240000000     0.955780000000     0.263230000000     0.033194   
H22      H      0.654390000000     0.005040000000     0.280860000000     0.0336611  
H23      H      0.659110000000     0.034510000000     0.374840000000     0.0432102  
H24      H      0.453660000000     0.986700000000     0.356860000000     0.0472853  
H25      H      0.696330000000     0.893840000000     0.042430000000     0.0459485  
H26      H      0.509710000000     0.819300000000     0.950010000000     0.0478262  
H27      H      0.499880000000     0.714140000000     0.949920000000     0.0426362  
H28      H      0.685300000000     0.788810000000     0.044520000000     0.0422053  
H29      H      0.648510000000     0.281070000000     0.071900000000     0.0378548  
H30      H      0.448470000000     0.165580000000     0.123560000000     0.0333428  
H31      H      0.439920000000     0.261750000000     0.131340000000     0.0418356  
H32      H      0.641590000000     0.376210000000     0.081190000000     0.0436834  
H33      H      0.791270000000     0.410680000000     0.494030000000     0.0378912  
H34      H      0.902200000000     0.319490000000     0.460970000000     0.0483894  
H35      H      0.801270000000     0.215710000000     0.466310000000     0.030769   
H36      H      0.688720000000     0.306410000000     0.494260000000     0.0400109  
H37      H      0.334860000000     0.686030000000     0.586280000000     0.0326069  
H38      H      0.223390000000     0.772690000000     0.629610000000     0.0475422  
H39      H      0.326200000000     0.868040000000     0.657550000000     0.045116   
H40      H      0.437630000000     0.778980000000     0.619490000000     0.0522037  
H41      H      0.804500000000     0.627130000000     0.462110000000     0.0393782  
H42      H      0.729180000000     0.511780000000     0.607560000000     0.0484071  
H43      H      0.834830000000     0.516220000000     0.626350000000     0.0458774  
H44      H      0.909930000000     0.630410000000     0.480600000000     0.0448789  
H45      H      0.236340000000     0.536770000000     0.609300000000     0.0502083  
H46      H      0.291460000000     0.593960000000     0.443120000000     0.0448977  
H47      H      0.398980000000     0.601880000000     0.465950000000     0.0441292  
H48      H      0.344940000000     0.547440000000     0.632290000000     0.0434714  
H49      H      0.030650000000     0.470660000000     0.838110000000     0.0486452  
H50      H      0.135500000000     0.676010000000     0.840330000000     0.0492065  
H51      H      0.119170000000     0.678110000000     0.740090000000     0.049182   
H52      H      0.016350000000     0.473120000000     0.740610000000     0.0401779  
H53      H      0.021980000000     0.434660000000     0.235540000000     0.047545   
H54      H      0.018490000000     0.609950000000     0.234900000000     0.0412067  
H55      H      0.041240000000     0.616560000000     0.332550000000     0.0489834  
H56      H      0.045440000000     0.441510000000     0.334260000000     0.0530713  
H57      H      0.940850000000     0.282990000000     0.967690000000     0.0411558  
H58      H      0.815210000000     0.364830000000     0.972150000000     0.0381514  
H59      H      0.720900000000     0.260890000000     0.991700000000     0.0547488  
H60      H      0.845020000000     0.177490000000     0.986330000000     0.0561009  
H61      H      0.304820000000     0.670160000000     0.124000000000     0.0496809  
H62      H      0.193210000000     0.761250000000     0.154560000000     0.0441906  
H63      H      0.294960000000     0.865620000000     0.150200000000     0.0352649  
H64      H      0.405110000000     0.773460000000     0.118480000000     0.0336049  
H65      H      0.784090000000     0.424990000000     0.030090000000     0.0354033  
H66      H      0.901430000000     0.622000000000     0.979410000000     0.0457657  
H67      H      0.801870000000     0.620030000000     0.941010000000     0.0352791  
H68      H      0.685070000000     0.423000000000     0.989280000000     0.0220781  
H69      H      0.241050000000     0.504550000000     0.069150000000     0.0601755  
H70      H      0.376750000000     0.694470000000     0.010440000000     0.0526367  
H71      H      0.470190000000     0.685190000000     0.053240000000     0.0312836  
H72      H      0.332810000000     0.496310000000     0.110310000000     0.0295705  
H73      H      0.858610000000     0.879740000000     0.667930000000     0.0472737  
H74      H      0.925910000000     0.813720000000     0.541020000000     0.0369784  
H75      H      0.817970000000     0.717510000000     0.533830000000     0.0353354  
H76      H      0.750190000000     0.781290000000     0.662210000000     0.0361956  
H77      H      0.186560000000     0.286490000000     0.495900000000     0.0473295  
H78      H      0.303530000000     0.201990000000     0.460710000000     0.0382165  
H79      H      0.403520000000     0.307140000000     0.463150000000     0.0516226  
H80      H      0.286670000000     0.390570000000     0.499880000000     0.0509388  
H81      H      0.893650000000     0.137170000000     0.540600000000     0.0376292  
H82      H      0.798120000000     0.932820000000     0.541530000000     0.0384959  
H83      H      0.698590000000     0.924200000000     0.577330000000     0.0501118  
H84      H      0.795240000000     0.129400000000     0.576630000000     0.0433456  
H85      H      0.320230000000     0.174950000000     0.557900000000     0.0498019  
H86      H      0.226720000000     0.988850000000     0.634500000000     0.0459935  
H87      H      0.302410000000     0.964610000000     0.592030000000     0.0322432  
H88      H      0.394180000000     0.149990000000     0.513260000000     0.0413536  
H89      H      0.977870000000     0.808550000000     0.453530000000     0.0295358  
H90      H      0.169630000000     0.931460000000     0.532970000000     0.0188776  
H91      H      0.190960000000     0.844130000000     0.542910000000     0.0458039  
H92      H      0.003310000000     0.722090000000     0.458580000000     0.0495763  
H93      H      0.157470000000     0.399320000000     0.562290000000     0.0493314  
H94      H      0.951920000000     0.280170000000     0.600640000000     0.0397094  
H95      H      0.973240000000     0.194260000000     0.629390000000     0.0529774  
H96      H      0.179730000000     0.314660000000     0.592820000000     0.0554509  
H97      H      0.175070000000     0.136280000000     0.856330000000     0.0424215  
H98      H      0.962320000000     0.019020000000     0.868120000000     0.0439783  
H99      H      0.948860000000     0.011990000000     0.769560000000     0.0595056  
H100     H      0.161710000000     0.129230000000     0.757670000000     0.0626748  
H101     H      0.134820000000     0.150430000000     0.254150000000     0.0535177  
H102     H      0.109750000000     0.961890000000     0.268120000000     0.0421926  
H103     H      0.103040000000     0.963800000000     0.366470000000     0.0425374  
H104     H      0.124000000000     0.149990000000     0.351710000000     0.0417309  
H105     H      0.886000000000     0.814020000000     0.951950000000     0.0370807  
H106     H      0.861490000000     0.841720000000     0.118680000000     0.0249545  
H107     H      0.769950000000     0.731680000000     0.124780000000     0.0343366  
H108     H      0.792610000000     0.705750000000     0.957220000000     0.038757   
H109     H      0.392970000000     0.262780000000     0.032860000000     0.0396131  
H110     H      0.311310000000     0.387250000000     0.023790000000     0.0391062  
H111     H      0.218340000000     0.310090000000     0.077590000000     0.0428029  
H112     H      0.303820000000     0.188810000000     0.088380000000     0.0498655  
H113     H      0.921090000000     0.154430000000     0.159480000000     0.0505117  
H114     H      0.845300000000     0.952280000000     0.155890000000     0.0453318  
H115     H      0.732360000000     0.933210000000     0.143530000000     0.0383308  
H116     H      0.808230000000     0.135400000000     0.145540000000     0.0457498  
H117     H      0.340570000000     0.145780000000     0.998000000000     0.030342   
H118     H      0.211440000000     0.944900000000     0.972060000000     0.041226   
H119     H      0.307540000000     0.929110000000     0.984850000000     0.0392759  
H120     H      0.435990000000     0.130840000000     0.006820000000     0.0495061  
H121     H      0.216300000000     0.824300000000     0.042800000000     0.0440938  
H122     H      0.004050000000     0.696630000000     0.040460000000     0.0324236  
H123     H      0.988610000000     0.779770000000     0.074120000000     0.0387977  
H124     H      0.200280000000     0.907970000000     0.077310000000     0.0397742  
H125     H      0.956080000000     0.174490000000     0.063520000000     0.0505429  
H126     H      0.146360000000     0.288510000000     0.992760000000     0.0430385  
H127     H      0.150190000000     0.384740000000     0.020540000000     0.0312227  
H128     H      0.959390000000     0.271160000000     0.091070000000     0.039934   
O1       O      0.014820000000     0.113490000000     0.042450000000    -0.416489   
O2       O      0.985920000000     0.912870000000     0.007340000000    -0.461886   
O3       O      0.133660000000     0.107850000000     0.952300000000    -0.431797   
O4       O      0.969220000000     0.020550000000     0.138720000000    -0.44986    
O5       O      0.037780000000     0.018880000000     0.949530000000    -0.460857   
O6       O      0.010180000000     0.123820000000     0.145790000000    -0.381934   
O7       O      0.941190000000     0.941550000000     0.063910000000    -0.455271   
O8       O      0.114870000000     0.172950000000     0.017970000000    -0.410995   
O9       O      0.093760000000     0.088100000000     0.170850000000    -0.445142   
O10      O      0.158950000000     0.024470000000     0.965170000000    -0.437487   
O11      O      0.185110000000     0.136300000000     0.101590000000    -0.426366   
O12      O      0.035470000000     0.904570000000     0.102280000000    -0.40111    
O13      O      0.110080000000     0.944490000000     0.041320000000    -0.46775    
O14      O      0.137300000000     0.187510000000     0.110770000000    -0.341379   
O15      O      0.072470000000     0.991990000000     0.175240000000    -0.445373   
O16      O      0.211890000000     0.083480000000     0.033200000000    -0.438534   
O17      O      0.080720000000     0.042650000000     0.059930000000    -0.532072   
O18      O      0.123020000000     0.031250000000     0.455790000000    -0.451468   
O19      O      0.038120000000     0.138910000000     0.602190000000    -0.426259   
O20      O      0.949290000000     0.048540000000     0.495830000000    -0.419668   
O21      O      0.139860000000     0.173760000000     0.527650000000    -0.389638   
O22      O      0.935740000000     0.026720000000     0.582640000000    -0.412351   
O23      O      0.196140000000     0.127760000000     0.510810000000    -0.420044   
O24      O      0.144310000000     0.200070000000     0.629370000000    -0.356941   
O25      O      0.044520000000     0.054530000000     0.434190000000    -0.429959   
O26      O      0.154980000000     0.042450000000     0.607250000000    -0.440439   
O27      O      0.991260000000     0.959440000000     0.620400000000    -0.382562   
O28      O      0.018820000000     0.936640000000     0.475070000000    -0.428441   
O29      O      0.096930000000     0.084380000000     0.668460000000    -0.413448   
O30      O      0.989540000000     0.047400000000     0.674610000000    -0.38684    
O31      O      0.081800000000     0.954360000000     0.548250000000    -0.463447   
O32      O      0.209130000000     0.141030000000     0.607010000000    -0.338584   
O33      O      0.935660000000     0.935520000000     0.540330000000    -0.437792   
O34      O      0.064120000000     0.049670000000     0.545870000000    -0.627442   
O35      O      0.003720000000     0.408020000000     0.975590000000    -0.395167   
O36      O      0.068230000000     0.651510000000     0.004440000000    -0.437443   
O37      O      0.909450000000     0.488010000000     0.072400000000    -0.43728    
O38      O      0.128070000000     0.614830000000     0.938760000000    -0.38514    
O39      O      0.963380000000     0.577160000000     0.031100000000    -0.481336   
O40      O      0.083290000000     0.514150000000     0.926800000000    -0.451069   
O41      O      0.169020000000     0.697890000000     0.023020000000    -0.355181   
O42      O      0.935950000000     0.436850000000     0.997700000000    -0.447127   
O43      O      0.187640000000     0.547040000000     0.004940000000    -0.470708   
O44      O      0.007590000000     0.565830000000     0.139610000000    -0.427611   
O45      O      0.001720000000     0.394320000000     0.073310000000    -0.416958   
O46      O      0.182570000000     0.609120000000     0.091340000000    -0.401379   
O47      O      0.125760000000     0.652010000000     0.111440000000    -0.427532   
O48      O      0.105440000000     0.448430000000     0.060630000000    -0.428987   
O49      O      0.242750000000     0.651240000000     0.998660000000    -0.366296   
O50      O      0.000940000000     0.473090000000     0.141520000000    -0.447124   
O51      O      0.056990000000     0.538980000000     0.038030000000    -0.509415   
O52      O      0.968740000000     0.444000000000     0.475270000000    -0.455243   
O53      O      0.108010000000     0.711520000000     0.571140000000    -0.421191   
O54      O      0.948960000000     0.536700000000     0.600180000000    -0.397527   
O55      O      0.065280000000     0.583610000000     0.423930000000    -0.41389    
O56      O      0.994480000000     0.613580000000     0.539330000000    -0.412576   
O57      O      0.074810000000     0.499170000000     0.430740000000    -0.369325   
O58      O      0.094930000000     0.683380000000     0.483950000000    -0.42865    
O59      O      0.919340000000     0.441170000000     0.545600000000    -0.46387    
O60      O      0.141460000000     0.513340000000     0.537900000000    -0.446633   
O61      O      0.056060000000     0.615220000000     0.642080000000    -0.373541   
O62      O      0.023510000000     0.423890000000     0.585530000000    -0.434069   
O63      O      0.204580000000     0.680760000000     0.525400000000    -0.442752   
O64      O      0.160400000000     0.640450000000     0.599620000000    -0.436539   
O65      O      0.048700000000     0.406060000000     0.503900000000    -0.426302   
O66      O      0.178000000000     0.582500000000     0.470910000000    -0.405981   
O67      O      0.057560000000     0.526930000000     0.648570000000    -0.414603   
O68      O      0.058210000000     0.553120000000     0.534370000000    -0.651387   
O69      O      0.442820000000     0.031900000000     0.072860000000    -0.451277   
O70      O      0.650730000000     0.976020000000     0.018040000000    -0.351758   
O71      O      0.577250000000     0.115070000000     0.946930000000    -0.365082   
O72      O      0.456990000000     0.889540000000     0.086960000000    -0.446914   
O73      O      0.593210000000     0.033170000000     0.956320000000    -0.406973   
O74      O      0.434280000000     0.941480000000     0.142430000000    -0.42617    
O75      O      0.547450000000     0.913060000000     0.026350000000    -0.427325   
O76      O      0.475680000000     0.021100000000     0.994390000000    -0.378616   
O77      O      0.555500000000     0.033740000000     0.187200000000    -0.459591   
O78      O      0.716590000000     0.097550000000     0.994980000000    -0.352238   
O79      O      0.549060000000     0.138700000000     0.039740000000    -0.372834   
O80      O      0.644380000000     0.966280000000     0.117720000000    -0.412442   
O81      O      0.691900000000     0.067920000000     0.097830000000    -0.379839   
O82      O      0.555560000000     0.123500000000     0.126880000000    -0.418446   
O83      O      0.542460000000     0.939050000000     0.177280000000    -0.439047   
O84      O      0.666590000000     0.144720000000     0.026590000000    -0.404753   
O85      O      0.558480000000     0.017600000000     0.077330000000    -0.559872   
O86      O      0.415270000000     0.002000000000     0.548500000000    -0.441533   
O87      O      0.608970000000     0.980900000000     0.508500000000    -0.42167    
O88      O      0.518580000000     0.051250000000     0.442210000000    -0.439715   
O89      O      0.507800000000     0.899530000000     0.638140000000    -0.383009   
O90      O      0.621060000000     0.070690000000     0.449840000000    -0.439178   
O91      O      0.445900000000     0.943890000000     0.626000000000    -0.459929   
O92      O      0.508030000000     0.929000000000     0.535270000000    -0.410982   
O93      O      0.450990000000     0.087310000000     0.503010000000    -0.446473   
O94      O      0.524780000000     0.064680000000     0.671930000000    -0.460329   
O95      O      0.688100000000     0.159030000000     0.534100000000    -0.437054   
O96      O      0.565910000000     0.177210000000     0.543640000000    -0.463365   
O97      O      0.625520000000     0.971100000000     0.602600000000    -0.359002   
O98      O      0.674740000000     0.070530000000     0.596730000000    -0.427953   
O99      O      0.490540000000     0.121490000000     0.602750000000    -0.414555   
O100     O      0.579450000000     0.016320000000     0.669270000000    -0.417607   
O101     O      0.628720000000     0.169040000000     0.467930000000    -0.435762   
O102     O      0.559120000000     0.057220000000     0.557260000000    -0.526828   
O103     O      0.472530000000     0.376580000000     0.003950000000    -0.40719    
O104     O      0.606430000000     0.668610000000     0.053300000000    -0.435024   
O105     O      0.441120000000     0.521420000000     0.056190000000    -0.446228   
O106     O      0.516880000000     0.527200000000     0.923490000000    -0.415469   
O107     O      0.511520000000     0.591910000000     0.114020000000    -0.408317   
O108     O      0.549000000000     0.457610000000     0.930470000000    -0.407794   
O109     O      0.548860000000     0.631530000000     0.977520000000    -0.40367    
O110     O      0.432310000000     0.436130000000     0.002650000000    -0.426813   
O111     O      0.651850000000     0.507840000000     0.015230000000    -0.454948   
O112     O      0.593980000000     0.537090000000     0.150080000000    -0.415636   
O113     O      0.480000000000     0.387170000000     0.098350000000    -0.378675   
O114     O      0.674250000000     0.645820000000     0.997500000000    -0.44265    
O115     O      0.684830000000     0.617490000000     0.081870000000    -0.407342   
O116     O      0.582540000000     0.435290000000     0.082870000000    -0.41511    
O117     O      0.652950000000     0.553360000000     0.938650000000    -0.396811   
O118     O      0.486630000000     0.485870000000     0.149280000000    -0.421617   
O119     O      0.554670000000     0.524730000000     0.036380000000    -0.50285    
O120     O      0.463190000000     0.446460000000     0.484170000000    -0.395837   
O121     O      0.579690000000     0.695320000000     0.563040000000    -0.444622   
O122     O      0.440960000000     0.529120000000     0.533080000000    -0.39338    
O123     O      0.563830000000     0.578460000000     0.426630000000    -0.428481   
O124     O      0.478330000000     0.594890000000     0.601560000000    -0.419742   
O125     O      0.585230000000     0.502960000000     0.444110000000    -0.357724   
O126     O      0.575030000000     0.675060000000     0.476420000000    -0.440278   
O127     O      0.410420000000     0.413580000000     0.560240000000    -0.357904   
O128     O      0.644640000000     0.522850000000     0.547590000000    -0.390786   
O129     O      0.570480000000     0.562690000000     0.656970000000    -0.429293   
O130     O      0.530300000000     0.439620000000     0.592490000000    -0.399908   
O131     O      0.689890000000     0.693480000000     0.530070000000    -0.456347   
O132     O      0.666190000000     0.662590000000     0.614960000000    -0.448206   
O133     O      0.550180000000     0.412390000000     0.515070000000    -0.358809   
O134     O      0.684400000000     0.597960000000     0.484520000000    -0.416391   
O135     O      0.468810000000     0.493690000000     0.635500000000    -0.35697    
O136     O      0.567820000000     0.572230000000     0.542080000000    -0.57185    


