data_structure

_audit_creation_method RASPA-1.0
_audit_creation_date 2023-6-4
_audit_author_name 'Poobodin Mano'

_cell_length_a    39.7944
_cell_length_b    40.0383
_cell_length_c    40.7874
_cell_angle_alpha 87.1363
_cell_angle_beta  93.817
_cell_angle_gamma 120.436
_cell_volume      55896.9

_symmetry_cell_setting          triclinic
_symmetry_space_group_name_Hall 'P 1'
_symmetry_space_group_name_H-M  'P 1'
_symmetry_Int_Tables_number     1

_symmetry_equiv_pos_as_xyz 'x,y,z'

loop_
_atom_site_label
_atom_site_type_symbol
_atom_site_fract_x
_atom_site_fract_y
_atom_site_fract_z
_atom_site_charge
C1       C      0.071070000000     0.142480000000     0.998230000000     0.377866   
C2       C      0.968570000000     0.947910000000     0.047090000000     0.483375   
C3       C      0.022630000000     0.048020000000     0.957830000000     0.481362   
C4       C      0.961130000000     0.027760000000     0.061110000000     0.440759   
C5       C      0.044250000000     0.075400000000     0.115500000000     0.452728   
C6       C      0.110300000000     0.049940000000     0.988380000000     0.478936   
C7       C      0.111710000000     0.132090000000     0.067830000000     0.461865   
C8       C      0.071200000000     0.982080000000     0.060070000000     0.465017   
C9       C      0.021810000000     0.050190000000     0.451190000000     0.473083   
C10      C      0.033410000000     0.120650000000     0.564950000000     0.481078   
C11      C      0.935590000000     0.016530000000     0.500290000000     0.442728   
C12      C      0.122050000000     0.110310000000     0.518810000000     0.482746   
C13      C      0.095360000000     0.017440000000     0.555030000000     0.485956   
C14      C      0.954610000000     0.958600000000     0.557460000000     0.451487   
C15      C      0.054010000000     0.981220000000     0.472480000000     0.421918   
C16      C      0.015560000000     0.036840000000     0.614220000000     0.477596   
C17      C      0.970900000000     0.457910000000     0.026600000000     0.460138   
C18      C      0.065170000000     0.639810000000     0.052440000000     0.461741   
C19      C      0.948030000000     0.518660000000     0.091870000000     0.471849   
C20      C      0.053460000000     0.554970000000     0.987120000000     0.469813   
C21      C      0.139660000000     0.575910000000     0.039440000000     0.399033   
C22      C      0.028250000000     0.527560000000     0.145210000000     0.474761   
C23      C      0.022220000000     0.445640000000     0.091140000000     0.380938   
C24      C      0.108250000000     0.606020000000     0.111660000000     0.467492   
C25      C      0.961010000000     0.453910000000     0.543730000000     0.473406   
C26      C      0.066210000000     0.647860000000     0.553800000000     0.406838   
C27      C      0.968220000000     0.559410000000     0.567260000000     0.495882   
C28      C      0.037800000000     0.524730000000     0.491510000000     0.448093   
C29      C      0.122160000000     0.545670000000     0.548230000000     0.466418   
C30      C      0.017350000000     0.554910000000     0.645560000000     0.476493   
C31      C      0.018250000000     0.454460000000     0.614760000000     0.47602    
C32      C      0.123580000000     0.614030000000     0.595270000000     0.469521   
C33      C      0.444920000000     0.030450000000     0.006570000000     0.48552    
C34      C      0.516700000000     0.946320000000     0.019750000000     0.471709   
C35      C      0.531570000000     0.061950000000     0.958810000000     0.439089   
C36      C      0.460760000000     0.957050000000     0.092490000000     0.527812   
C37      C      0.539530000000     0.053360000000     0.121110000000     0.525074   
C38      C      0.606780000000     0.105360000000     0.022750000000     0.447837   
C39      C      0.512920000000     0.122590000000     0.041980000000     0.418126   
C40      C      0.609970000000     0.023750000000     0.046250000000     0.473611   
C41      C      0.433990000000     0.012320000000     0.519240000000     0.474014   
C42      C      0.526430000000     0.944920000000     0.514480000000     0.501822   
C43      C      0.528060000000     0.040960000000     0.460530000000     0.489493   
C44      C      0.446840000000     0.953190000000     0.595910000000     0.455856   
C45      C      0.539100000000     0.035060000000     0.620770000000     0.455757   
C46      C      0.597100000000     0.110590000000     0.520290000000     0.507856   
C47      C      0.474010000000     0.079230000000     0.573970000000     0.406063   
C48      C      0.600440000000     0.016110000000     0.570300000000     0.491128   
C49      C      0.466960000000     0.438820000000     0.975730000000     0.469608   
C50      C      0.573360000000     0.638270000000     0.008730000000     0.384518   
C51      C      0.474340000000     0.559490000000     0.998990000000     0.498722   
C52      C      0.541160000000     0.522690000000     0.930500000000     0.448741   
C53      C      0.618150000000     0.530530000000     0.985870000000     0.436978   
C54      C      0.499570000000     0.534530000000     0.078170000000     0.496443   
C55      C      0.510900000000     0.449990000000     0.053770000000     0.471622   
C56      C      0.629250000000     0.597310000000     0.035840000000     0.483277   
C57      C      0.445870000000     0.455130000000     0.486340000000     0.469894   
C58      C      0.533810000000     0.616700000000     0.460980000000     0.493964   
C59      C      0.451320000000     0.517920000000     0.538770000000     0.466763   
C60      C      0.535140000000     0.524480000000     0.418690000000     0.47751    
C61      C      0.605210000000     0.525610000000     0.483380000000     0.49824    
C62      C      0.546460000000     0.548320000000     0.580850000000     0.449526   
C63      C      0.514400000000     0.430660000000     0.510330000000     0.40235    
C64      C      0.607670000000     0.622560000000     0.522780000000     0.4776     
C65      C      0.527960000000     0.490540000000     0.844160000000    -0.103686   
C66      C      0.537860000000     0.569710000000     0.631390000000     0.0760653  
C67      C      0.569330000000     0.532990000000     0.631630000000     0.0726776  
C68      C      0.536460000000     0.566440000000     0.665630000000    -0.0933113  
C69      C      0.543390000000     0.565640000000     0.739390000000    -0.0357211  
C70      C      0.539020000000     0.559830000000     0.773230000000    -0.0342739  
C71      C      0.548700000000     0.540330000000     0.720480000000    -0.00578959 
C72      C      0.569870000000     0.530490000000     0.666020000000    -0.0921971  
C73      C      0.541800000000     0.529650000000     0.790130000000    -0.00828709 
C74      C      0.552100000000     0.558790000000     0.845670000000    -0.0976399  
C75      C      0.547180000000     0.504260000000     0.771400000000    -0.0342688  
C76      C      0.550230000000     0.555910000000     0.879610000000     0.0790159  
C77      C      0.527710000000     0.488590000000     0.878890000000     0.105293   
C78      C      0.549960000000     0.509150000000     0.737150000000    -0.0356419  
C79      C      0.551950000000     0.546000000000     0.683740000000     0.0481638  
C80      C      0.540460000000     0.526010000000     0.827010000000     0.0548743  
C81      C      0.503470000000     0.552390000000     0.166140000000    -0.107819   
C82      C      0.509630000000     0.482520000000     0.372350000000     0.0768159  
C83      C      0.527660000000     0.548620000000     0.366200000000     0.0786515  
C84      C      0.497680000000     0.476580000000     0.338890000000    -0.0935809  
C85      C      0.498230000000     0.481570000000     0.263050000000    -0.0356814  
C86      C      0.493280000000     0.483230000000     0.228760000000    -0.0341722  
C87      C      0.489140000000     0.503220000000     0.283110000000    -0.00690412 
C88      C      0.516300000000     0.543800000000     0.333030000000    -0.0955498  
C89      C      0.479520000000     0.506810000000     0.214060000000    -0.0101179  
C90      C      0.461610000000     0.484420000000     0.155870000000    -0.0990076  
C91      C      0.468140000000     0.526420000000     0.234080000000    -0.0349856  
C92      C      0.465870000000     0.492550000000     0.122180000000     0.0786711  
C93      C      0.508010000000     0.559710000000     0.132320000000     0.109079   
C94      C      0.472440000000     0.524280000000     0.268210000000    -0.0361428  
C95      C      0.500670000000     0.507480000000     0.318860000000     0.0507576  
C96      C      0.481140000000     0.514460000000     0.178170000000     0.0575051  
C97      C      0.491520000000     0.679070000000     0.444560000000    -0.108234   
C98      C      0.552770000000     0.920090000000     0.478740000000     0.0800735  
C99      C      0.491430000000     0.877850000000     0.501360000000     0.0770976  
C100     C      0.552230000000     0.889140000000     0.464150000000    -0.098993   
C101     C      0.556780000000     0.815970000000     0.465380000000    -0.0362191  
C102     C      0.558030000000     0.783060000000     0.457980000000    -0.0343763  
C103     C      0.523060000000     0.818150000000     0.457650000000    -0.00800179 
C104     C      0.489820000000     0.846130000000     0.486850000000    -0.0967391  
C105     C      0.525710000000     0.751630000000     0.442280000000    -0.0100467  
C106     C      0.559830000000     0.714520000000     0.434230000000    -0.0994182  
C107     C      0.492580000000     0.754680000000     0.433110000000    -0.0346253  
C108     C      0.560970000000     0.680400000000     0.439010000000     0.077423   
C109     C      0.493180000000     0.645010000000     0.448420000000     0.10372    
C110     C      0.491130000000     0.787510000000     0.441040000000    -0.036586   
C111     C      0.521030000000     0.851600000000     0.468800000000     0.0521556  
C112     C      0.525410000000     0.714610000000     0.439150000000     0.0559462  
C113     C      0.463750000000     0.162340000000     0.547220000000    -0.112581   
C114     C      0.508280000000     0.387050000000     0.554080000000     0.0736524  
C115     C      0.492530000000     0.364610000000     0.499380000000     0.0737872  
C116     C      0.494470000000     0.349500000000     0.566330000000    -0.0941856  
C117     C      0.483660000000     0.270750000000     0.584290000000    -0.035916   
C118     C      0.473600000000     0.232760000000     0.593000000000    -0.0336309  
C119     C      0.464080000000     0.278290000000     0.557510000000    -0.00665027 
C120     C      0.478760000000     0.326570000000     0.510830000000    -0.0926553  
C121     C      0.444090000000     0.201760000000     0.574930000000    -0.0113196  
C122     C      0.434700000000     0.138640000000     0.599400000000    -0.0988503  
C123     C      0.422110000000     0.208910000000     0.550250000000    -0.0348033  
C124     C      0.442360000000     0.108190000000     0.598050000000     0.0770577  
C125     C      0.472160000000     0.132700000000     0.546820000000     0.114625   
C126     C      0.431860000000     0.246870000000     0.541730000000    -0.0365225  
C127     C      0.478880000000     0.318540000000     0.544760000000     0.0496673  
C128     C      0.445940000000     0.166130000000     0.573800000000     0.0594526  
C129     C      0.564840000000     0.032320000000     0.708770000000    -0.107956   
C130     C      0.553840000000     0.100710000000     0.909820000000     0.0737429  
C131     C      0.518970000000     0.032150000000     0.907360000000     0.0712096  
C132     C      0.558390000000     0.103540000000     0.875790000000    -0.093222   
C133     C      0.582870000000     0.098410000000     0.807050000000    -0.0359169  
C134     C      0.588000000000     0.096760000000     0.773600000000    -0.0351183  
C135     C      0.547710000000     0.071070000000     0.821280000000    -0.00685396 
C136     C      0.523200000000     0.033890000000     0.873700000000    -0.0947445  
C137     C      0.558250000000     0.067490000000     0.754150000000    -0.0100017  
C138     C      0.560840000000     0.089420000000     0.695880000000    -0.0973423  
C139     C      0.522880000000     0.040990000000     0.767980000000    -0.0343316  
C140     C      0.556320000000     0.080620000000     0.662660000000     0.0790968  
C141     C      0.561170000000     0.024540000000     0.675170000000     0.107856   
C142     C      0.517490000000     0.042990000000     0.801050000000    -0.0358084  
C143     C      0.543010000000     0.069770000000     0.857310000000     0.0491918  
C144     C      0.563030000000     0.064000000000     0.719230000000     0.0575751  
C145     C      0.517410000000     0.070820000000     0.375180000000    -0.108042   
C146     C      0.578220000000     0.063390000000     0.170520000000     0.0799418  
C147     C      0.532710000000     0.085240000000     0.165740000000     0.0792012  
C148     C      0.582460000000     0.068650000000     0.204340000000    -0.0988729  
C149     C      0.546130000000     0.039630000000     0.269990000000    -0.0358471  
C150     C      0.539320000000     0.033070000000     0.303340000000    -0.0341003  
C151     C      0.555390000000     0.075480000000     0.255180000000    -0.00789585 
C152     C      0.536440000000     0.091110000000     0.199560000000    -0.0979148  
C153     C      0.542210000000     0.062430000000     0.322890000000    -0.0101706  
C154     C      0.548530000000     0.032680000000     0.376600000000    -0.100226   
C155     C      0.551530000000     0.098440000000     0.308010000000    -0.0341513  
C156     C      0.543270000000     0.026640000000     0.410140000000     0.0795917  
C157     C      0.512760000000     0.064680000000     0.409150000000     0.107845   
C158     C      0.557720000000     0.104790000000     0.274340000000    -0.0364096  
C159     C      0.559670000000     0.080430000000     0.219330000000     0.0527822  
C160     C      0.536080000000     0.055420000000     0.358690000000     0.0576515  
C161     C      0.558560000000     0.719520000000     0.023950000000    -0.108879   
C162     C      0.497990000000     0.896190000000     0.981030000000     0.0759838  
C163     C      0.506590000000     0.885030000000     0.037780000000     0.0784582  
C164     C      0.494240000000     0.860580000000     0.973610000000    -0.0955536  
C165     C      0.525380000000     0.804940000000     0.967950000000    -0.0357675  
C166     C      0.536320000000     0.776830000000     0.967060000000    -0.0350249  
C167     C      0.500840000000     0.802920000000     0.992230000000    -0.00778672 
C168     C      0.502430000000     0.849370000000     0.031370000000    -0.0970817  
C169     C      0.523130000000     0.746600000000     0.990580000000    -0.0104853  
C170     C      0.538780000000     0.699350000000     0.968060000000    -0.0977916  
C171     C      0.496160000000     0.742810000000     0.013050000000    -0.0351989  
C172     C      0.552740000000     0.673690000000     0.973090000000     0.0735368  
C173     C      0.573290000000     0.694340000000     0.028180000000     0.106079   
C174     C      0.484820000000     0.770490000000     0.013660000000    -0.0366379  
C175     C      0.497610000000     0.837270000000     0.998950000000     0.0510935  
C176     C      0.540170000000     0.721280000000     0.994100000000     0.0554329  
C177     C      0.524420000000     0.376580000000     0.098880000000    -0.107759   
C178     C      0.486970000000     0.146100000000     0.079630000000     0.0750609  
C179     C      0.519490000000     0.184710000000     0.033330000000     0.0753674  
C180     C      0.479970000000     0.174740000000     0.089770000000    -0.0963803  
C181     C      0.501710000000     0.259290000000     0.109500000000    -0.0366398  
C182     C      0.500080000000     0.292520000000     0.115570000000    -0.0348566  
C183     C      0.484680000000     0.239020000000     0.080300000000    -0.00753457 
C184     C      0.512170000000     0.213470000000     0.042330000000    -0.0951185  
C185     C      0.480840000000     0.305390000000     0.092730000000    -0.0106262  
C186     C      0.456300000000     0.351840000000     0.085070000000    -0.099109   
C187     C      0.461190000000     0.283080000000     0.064850000000    -0.0336684  
C188     C      0.464860000000     0.389230000000     0.075930000000     0.0767765  
C189     C      0.532200000000     0.413780000000     0.089310000000     0.105467   
C190     C      0.463440000000     0.250420000000     0.058530000000    -0.0372435  
C191     C      0.492240000000     0.208540000000     0.070770000000     0.0509885  
C192     C      0.486700000000     0.344870000000     0.094230000000     0.0559937  
C193     C      0.890790000000     0.354580000000     0.515810000000    -0.107662   
C194     C      0.636900000000     0.177490000000     0.533690000000     0.0782784  
C195     C      0.663630000000     0.145480000000     0.507050000000     0.0817928  
C196     C      0.672860000000     0.212160000000     0.533240000000    -0.0959871  
C197     C      0.746700000000     0.283430000000     0.505560000000    -0.0359628  
C198     C      0.783250000000     0.317120000000     0.504150000000    -0.0343699  
C199     C      0.743340000000     0.249060000000     0.519130000000    -0.00803644 
C200     C      0.699960000000     0.179210000000     0.506870000000    -0.0993326  
C201     C      0.817180000000     0.317390000000     0.516930000000    -0.0097639  
C202     C      0.857530000000     0.389060000000     0.524610000000    -0.0984874  
C203     C      0.813600000000     0.282690000000     0.530300000000    -0.0346093  
C204     C      0.893450000000     0.422400000000     0.530150000000     0.0748886  
C205     C      0.926840000000     0.388610000000     0.521780000000     0.106319   
C206     C      0.777130000000     0.248860000000     0.531140000000    -0.0361437  
C207     C      0.704850000000     0.213070000000     0.519840000000     0.0523461  
C208     C      0.855630000000     0.354150000000     0.518540000000     0.0556238  
C209     C      0.367590000000     0.885730000000     0.650160000000    -0.105574   
C210     C      0.192430000000     0.653120000000     0.596750000000     0.0770753  
C211     C      0.157790000000     0.650790000000     0.642750000000     0.078286   
C212     C      0.226690000000     0.683710000000     0.610290000000    -0.0950114  
C213     C      0.297520000000     0.742350000000     0.651520000000    -0.0368748  
C214     C      0.330340000000     0.779470000000     0.651340000000    -0.0348927  
C215     C      0.259990000000     0.737470000000     0.649730000000    -0.0071688  
C216     C      0.191400000000     0.682410000000     0.656540000000    -0.094986   
C217     C      0.326220000000     0.812430000000     0.648680000000    -0.00983278 
C218     C      0.381170000000     0.850540000000     0.612320000000    -0.0984559  
C219     C      0.288810000000     0.807530000000     0.650400000000    -0.0340446  
C220     C      0.409910000000     0.885350000000     0.599460000000     0.073661   
C221     C      0.397380000000     0.920900000000     0.636950000000     0.102018   
C222     C      0.255900000000     0.770250000000     0.651010000000    -0.0358393  
C223     C      0.225990000000     0.699840000000     0.639710000000     0.0509049  
C224     C      0.359350000000     0.850180000000     0.637800000000     0.0549592  
C225     C      0.901460000000     0.585030000000     0.519750000000    -0.107258   
C226     C      0.646300000000     0.506720000000     0.513720000000     0.0798053  
C227     C      0.670430000000     0.551110000000     0.468670000000     0.0814427  
C228     C      0.683430000000     0.511990000000     0.521120000000    -0.096038   
C229     C      0.769720000000     0.555970000000     0.543210000000    -0.0362775  
C230     C      0.807590000000     0.564290000000     0.551830000000    -0.0344357  
C231     C      0.754690000000     0.546380000000     0.510820000000    -0.00793648 
C232     C      0.707600000000     0.556570000000     0.475040000000    -0.098882   
C233     C      0.830970000000     0.562630000000     0.528310000000    -0.0107071  
C234     C      0.870890000000     0.546150000000     0.567340000000    -0.101636   
C235     C      0.816320000000     0.554250000000     0.495620000000    -0.034169   
C236     C      0.904860000000     0.545840000000     0.576190000000     0.0811309  
C237     C      0.935740000000     0.584320000000     0.529170000000     0.105252   
C238     C      0.778490000000     0.546330000000     0.486920000000    -0.0362378  
C239     C      0.714580000000     0.537680000000     0.501950000000     0.0531774  
C240     C      0.868610000000     0.565430000000     0.538740000000     0.0581311  
C241     C      0.203040000000     0.532940000000     0.579340000000    -0.109422   
C242     C      0.391780000000     0.508200000000     0.514710000000     0.0763707  
C243     C      0.395280000000     0.491450000000     0.570990000000     0.0734171  
C244     C      0.354340000000     0.501380000000     0.517360000000    -0.0969771  
C245     C      0.271890000000     0.480110000000     0.528740000000    -0.0369163  
C246     C      0.243830000000     0.491240000000     0.528100000000    -0.0346865  
C247     C      0.303360000000     0.495520000000     0.552110000000    -0.00785047 
C248     C      0.357890000000     0.485430000000     0.574830000000    -0.0967248  
C249     C      0.246860000000     0.518000000000     0.550770000000    -0.0104995  
C250     C      0.203250000000     0.538740000000     0.520330000000    -0.0988166  
C251     C      0.277540000000     0.532180000000     0.574920000000    -0.0347072  
C252     C      0.173230000000     0.547200000000     0.520480000000     0.0732342  
C253     C      0.173310000000     0.541620000000     0.578880000000     0.103999   
C254     C      0.305420000000     0.520890000000     0.575670000000    -0.0361708  
C255     C      0.337790000000     0.491810000000     0.547950000000     0.0505983  
C256     C      0.217430000000     0.530200000000     0.549990000000     0.0559619  
C257     C      0.031360000000     0.603020000000     0.725010000000    -0.106101   
C258     C      0.031630000000     0.528870000000     0.933810000000     0.0769684  
C259     C      0.051600000000     0.594690000000     0.942340000000     0.0791512  
C260     C      0.024110000000     0.532960000000     0.900470000000    -0.0944515  
C261     C      0.991010000000     0.545770000000     0.835130000000    -0.0360818  
C262     C      0.987660000000     0.546490000000     0.800900000000    -0.0339849  
C263     C      0.025130000000     0.573560000000     0.851840000000    -0.00678249 
C264     C      0.045000000000     0.599980000000     0.908870000000    -0.0943832  
C265     C      0.018550000000     0.574780000000     0.782600000000    -0.0100213  
C266     C      0.004670000000     0.534630000000     0.733490000000    -0.0989792  
C267     C      0.051660000000     0.604140000000     0.799380000000    -0.0336945  
C268     C      0.005110000000     0.530720000000     0.699960000000     0.0776886  
C269     C      0.031520000000     0.598460000000     0.691020000000     0.103211   
C270     C      0.054870000000     0.603580000000     0.833770000000    -0.0358511  
C271     C      0.031090000000     0.568860000000     0.887600000000     0.0516441  
C272     C      0.017730000000     0.570950000000     0.746490000000     0.0567335  
C273     C      0.039020000000     0.489880000000     0.228460000000    -0.103593   
C274     C      0.021570000000     0.538630000000     0.437270000000     0.0734079  
C275     C      0.034300000000     0.487070000000     0.446250000000     0.0743273  
C276     C      0.017840000000     0.533230000000     0.403360000000    -0.09313    
C277     C      0.992780000000     0.502710000000     0.334070000000    -0.0360985  
C278     C      0.993720000000     0.503740000000     0.299830000000    -0.0342707  
C279     C      0.022040000000     0.500910000000     0.353970000000    -0.0066525  
C280     C      0.031380000000     0.481280000000     0.412270000000    -0.0934538  
C281     C      0.024160000000     0.503410000000     0.284390000000    -0.00900905 
C282     C      0.019130000000     0.536780000000     0.232480000000    -0.0976395  
C283     C      0.052410000000     0.499600000000     0.304240000000    -0.0344988  
C284     C      0.020770000000     0.542320000000     0.198580000000     0.0774458  
C285     C      0.040630000000     0.496020000000     0.194000000000     0.102907   
C286     C      0.051300000000     0.498290000000     0.338680000000    -0.0359918  
C287     C      0.023440000000     0.504780000000     0.390320000000     0.0489713  
C288     C      0.027440000000     0.509790000000     0.247990000000     0.055115   
C289     C      0.867130000000     0.390000000000     0.005950000000    -0.104069   
C290     C      0.669120000000     0.141830000000     0.998770000000     0.0745093  
C291     C      0.655680000000     0.166180000000     0.044690000000     0.0775802  
C292     C      0.705440000000     0.176130000000     0.996160000000    -0.0909917  
C293     C      0.788270000000     0.246170000000     0.002520000000    -0.0363356  
C294     C      0.823600000000     0.281540000000     0.000120000000    -0.0345874  
C295     C      0.755240000000     0.244380000000     0.015150000000    -0.00531433 
C296     C      0.691910000000     0.200430000000     0.043140000000    -0.0914667  
C297     C      0.827410000000     0.316420000000     0.010600000000    -0.0084153  
C298     C      0.901590000000     0.355190000000     0.013490000000    -0.0944638  
C299     C      0.794280000000     0.314590000000     0.023020000000    -0.0337572  
C300     C      0.936770000000     0.390630000000     0.015810000000     0.0774268  
C301     C      0.902900000000     0.425180000000     0.008760000000     0.104521   
C302     C      0.758880000000     0.279400000000     0.024980000000    -0.0359559  
C303     C      0.717270000000     0.206510000000     0.018200000000     0.0480966  
C304     C      0.865770000000     0.354220000000     0.009760000000     0.0533941  
C305     C      0.214710000000     0.666310000000     0.125380000000    -0.105423   
C306     C      0.393700000000     0.918690000000     0.103920000000     0.0803399  
C307     C      0.432840000000     0.889530000000     0.106340000000     0.0773488  
C308     C      0.360500000000     0.882970000000     0.109740000000    -0.0967115  
C309     C      0.291850000000     0.803670000000     0.098750000000    -0.0359539  
C310     C      0.257070000000     0.768680000000     0.102620000000    -0.0347907  
C311     C      0.326520000000     0.810610000000     0.116070000000    -0.00737899 
C312     C      0.399870000000     0.852970000000     0.111880000000    -0.0951961  
C313     C      0.255840000000     0.739260000000     0.123660000000    -0.00977311 
C314     C      0.184170000000     0.703950000000     0.132050000000    -0.0983666  
C315     C      0.290620000000     0.745340000000     0.140160000000    -0.0352673  
C316     C      0.147840000000     0.670120000000     0.130390000000     0.0795712  
C317     C      0.177620000000     0.632580000000     0.123610000000     0.107081   
C318     C      0.325600000000     0.780740000000     0.136520000000    -0.0360662  
C319     C      0.362870000000     0.849200000000     0.112890000000     0.0507827  
C320     C      0.218010000000     0.702620000000     0.127760000000     0.0561943  
C321     C      0.863040000000     0.530090000000     0.082640000000    -0.108841   
C322     C      0.640370000000     0.489140000000     0.006920000000     0.076309   
C323     C      0.679960000000     0.540290000000     0.970550000000     0.072655   
C324     C      0.670260000000     0.481530000000     0.014900000000    -0.0961052  
C325     C      0.745540000000     0.502470000000     0.051900000000    -0.0366503  
C326     C      0.775880000000     0.498820000000     0.067320000000    -0.0345403  
C327     C      0.740380000000     0.502230000000     0.017420000000    -0.00656457 
C328     C      0.711300000000     0.533780000000     0.978550000000    -0.0933577  
C329     C      0.801730000000     0.494440000000     0.048730000000    -0.0107578  
C330     C      0.846060000000     0.467240000000     0.063750000000    -0.09717    
C331     C      0.796470000000     0.493570000000     0.014230000000    -0.0336444  
C332     C      0.882020000000     0.472990000000     0.077280000000     0.0803763  
C333     C      0.898930000000     0.535460000000     0.095060000000     0.114662   
C334     C      0.766140000000     0.497740000000     0.998640000000    -0.0369413  
C335     C      0.706900000000     0.505180000000     0.002250000000     0.0495942  
C336     C      0.837200000000     0.496820000000     0.065250000000     0.0577885  
C337     C      0.246620000000     0.623560000000     0.031070000000    -0.106192   
C338     C      0.413300000000     0.552060000000     0.979900000000     0.0771005  
C339     C      0.458340000000     0.607620000000     0.010180000000     0.0759657  
C340     C      0.383970000000     0.560890000000     0.982830000000    -0.0968884  
C341     C      0.335130000000     0.571630000000     0.035500000000    -0.0364616  
C342     C      0.301100000000     0.571040000000     0.042830000000    -0.0350222  
C343     C      0.358620000000     0.596460000000     0.010760000000    -0.00789199 
C344     C      0.429570000000     0.617400000000     0.013510000000    -0.0945641  
C345     C      0.289600000000     0.595050000000     0.025320000000    -0.00983915 
C346     C      0.218330000000     0.554590000000     0.035360000000    -0.0967713  
C347     C      0.314070000000     0.621050000000     0.001320000000    -0.0345484  
C348     C      0.182060000000     0.550870000000     0.039130000000     0.0731265  
C349     C      0.209770000000     0.619230000000     0.035020000000     0.102614   
C350     C      0.348370000000     0.621720000000     0.994080000000    -0.036634   
C351     C      0.391600000000     0.592860000000     0.000950000000     0.0507885  
C352     C      0.251120000000     0.591150000000     0.030810000000     0.0543944  
C353     C      0.672860000000     0.709100000000     0.572690000000    -0.107553   
C354     C      0.923180000000     0.890090000000     0.564810000000     0.0746713  
C355     C      0.897520000000     0.924920000000     0.588290000000     0.075444   
C356     C      0.889360000000     0.855030000000     0.571430000000    -0.0935582  
C357     C      0.815530000000     0.782460000000     0.591600000000    -0.0362187  
C358     C      0.779520000000     0.748520000000     0.586600000000    -0.0347532  
C359     C      0.819030000000     0.819000000000     0.585840000000    -0.00695071 
C360     C      0.863310000000     0.890380000000     0.595350000000    -0.0949126  
C361     C      0.746140000000     0.750320000000     0.575850000000    -0.00979204 
C362     C      0.710440000000     0.687320000000     0.546660000000    -0.0983308  
C363     C      0.749140000000     0.786790000000     0.572000000000    -0.0348308  
C364     C      0.675940000000     0.656330000000     0.533920000000     0.0755359  
C365     C      0.638310000000     0.677340000000     0.559910000000     0.106282   
C366     C      0.785140000000     0.820700000000     0.576870000000    -0.0358221  
C367     C      0.858060000000     0.854970000000     0.585400000000     0.0496393  
C368     C      0.709310000000     0.714770000000     0.565580000000     0.0559246  
C369     C      0.198870000000     0.212020000000     0.509630000000    -0.109109   
C370     C      0.400390000000     0.416080000000     0.443980000000     0.0777644  
C371     C      0.380000000000     0.412220000000     0.498080000000     0.0774642  
C372     C      0.364660000000     0.383090000000     0.435260000000    -0.0950388  
C373     C      0.264590000000     0.320160000000     0.461060000000    -0.036718   
C374     C      0.233470000000     0.282660000000     0.465830000000    -0.0351369  
C375     C      0.300980000000     0.326190000000     0.452950000000    -0.00757673 
C376     C      0.343770000000     0.380350000000     0.489930000000    -0.0953253  
C377     C      0.238250000000     0.250480000000     0.462890000000    -0.0105169  
C378     C      0.194620000000     0.177580000000     0.461550000000    -0.0981435  
C379     C      0.273340000000     0.256300000000     0.451340000000    -0.0346198  
C380     C      0.166870000000     0.143080000000     0.476710000000     0.0770787  
C381     C      0.171850000000     0.177300000000     0.524480000000     0.110705   
C382     C      0.304560000000     0.294010000000     0.446360000000    -0.0358462  
C383     C      0.336350000000     0.364430000000     0.458720000000     0.0508938  
C384     C      0.209670000000     0.212710000000     0.477650000000     0.0566601  
C385     C      0.705020000000     0.053560000000     0.578120000000    -0.109494   
C386     C      0.868120000000     0.981590000000     0.511480000000     0.0744224  
C387     C      0.902970000000     0.050350000000     0.510520000000     0.0650683  
C388     C      0.835290000000     0.981000000000     0.522390000000    -0.0967099  
C389     C      0.782190000000     0.991260000000     0.566640000000    -0.0368788  
C390     C      0.750900000000     0.992480000000     0.579070000000    -0.0348605  
C391     C      0.802920000000     0.016290000000     0.540690000000    -0.00758262 
C392     C      0.870750000000     0.050830000000     0.521210000000    -0.0965038  
C393     C      0.739850000000     0.018750000000     0.565740000000    -0.0106074  
C394     C      0.670470000000     0.983970000000     0.582370000000    -0.0994887  
C395     C      0.760670000000     0.043670000000     0.539770000000    -0.0344725  
C396     C      0.635810000000     0.984290000000     0.584550000000     0.0782039  
C397     C      0.669820000000     0.053000000000     0.580020000000     0.106854   
C398     C      0.791820000000     0.042480000000     0.527440000000    -0.0368146  
C399     C      0.836650000000     0.015920000000     0.527870000000     0.0485929  
C400     C      0.705100000000     0.018760000000     0.576750000000     0.0563179  
C401     C      0.146410000000     0.964260000000     0.543180000000    -0.108359   
C402     C      0.366540000000     0.966440000000     0.522250000000     0.0796552  
C403     C      0.386950000000     0.024910000000     0.491850000000     0.0754341  
C404     C      0.328370000000     0.959420000000     0.521620000000    -0.0923994  
C405     C      0.261570000000     0.965800000000     0.543650000000    -0.0352156  
C406     C      0.228920000000     0.967440000000     0.552090000000    -0.0347752  
C407     C      0.282240000000     0.985720000000     0.515480000000    -0.00588484 
C408     C      0.349460000000     0.019720000000     0.492000000000    -0.0923577  
C409     C      0.216880000000     0.990020000000     0.533270000000    -0.0107899  
C410     C      0.192810000000     0.031320000000     0.553430000000    -0.0993287  
C411     C      0.236760000000     0.009480000000     0.505070000000    -0.0359151  
C412     C      0.162220000000     0.036950000000     0.560340000000     0.0825569  
C413     C      0.116000000000     0.970910000000     0.549430000000     0.108892   
C414     C      0.268390000000     0.006630000000     0.495810000000    -0.0361575  
C415     C      0.319860000000     0.987650000000     0.508670000000     0.0498039  
C416     C      0.184900000000     0.995050000000     0.543720000000     0.0575825  
C417     C      0.101430000000     0.923440000000     0.466180000000    -0.106995   
C418     C      0.068770000000     0.707180000000     0.563730000000     0.0747144  
C419     C      0.073460000000     0.691660000000     0.509490000000     0.0736395  
C420     C      0.071570000000     0.741930000000     0.552410000000    -0.0937106  
C421     C      0.047760000000     0.795590000000     0.517810000000    -0.0365261  
C422     C      0.046080000000     0.827820000000     0.505700000000    -0.0356926  
C423     C      0.074770000000     0.786900000000     0.506190000000    -0.00708446 
C424     C      0.076490000000     0.726280000000     0.497350000000    -0.0940116  
C425     C      0.071370000000     0.852400000000     0.481580000000    -0.0110279  
C426     C      0.031720000000     0.882710000000     0.464350000000    -0.0987437  
C427     C      0.098920000000     0.844180000000     0.470180000000    -0.0349287  
C428     C      0.028300000000     0.915510000000     0.461920000000     0.0793579  
C429     C      0.097110000000     0.956330000000     0.462920000000     0.105284   
C430     C      0.100380000000     0.811460000000     0.482210000000    -0.0366364  
C431     C      0.075100000000     0.751670000000     0.518840000000     0.0496201  
C432     C      0.068450000000     0.886470000000     0.469370000000     0.0549899  
C433     C      0.054090000000     0.209740000000     0.607000000000    -0.107513   
C434     C      0.980640000000     0.385860000000     0.620740000000     0.0769956  
C435     C      0.049480000000     0.418400000000     0.629550000000     0.0723198  
C436     C      0.979030000000     0.350170000000     0.620680000000    -0.0967267  
C437     C      0.003630000000     0.298680000000     0.585660000000    -0.0370138  
C438     C      0.007500000000     0.267440000000     0.577430000000    -0.0344161  
C439     C      0.013820000000     0.313290000000     0.617530000000    -0.00763906 
C440     C      0.048810000000     0.383200000000     0.630580000000    -0.0964663  
C441     C      0.020790000000     0.249390000000     0.601140000000    -0.0101794  
C442     C      0.000090000000     0.190330000000     0.567870000000    -0.0991049  
C443     C      0.030190000000     0.263750000000     0.633360000000    -0.0342817  
C444     C      0.004710000000     0.159870000000     0.558950000000     0.0756075  
C445     C      0.057540000000     0.178100000000     0.598330000000     0.107271   
C446     C      0.027250000000     0.295760000000     0.641340000000    -0.0371128  
C447     C      0.013560000000     0.348910000000     0.624530000000     0.0501363  
C448     C      0.024990000000     0.216030000000     0.592030000000     0.0560041  
C449     C      0.031200000000     0.078700000000     0.870420000000    -0.106731   
C450     C      0.980090000000     0.033600000000     0.660160000000     0.0772601  
C451     C      0.033050000000     0.022180000000     0.667680000000     0.0755564  
C452     C      0.976360000000     0.031970000000     0.694090000000    -0.0958647  
C453     C      0.966860000000     0.013930000000     0.767620000000    -0.0359055  
C454     C      0.967180000000     0.018500000000     0.801470000000    -0.0345387  
C455     C      0.002060000000     0.029560000000     0.751490000000    -0.00731449 
C456     C      0.030080000000     0.020290000000     0.701710000000    -0.0953716  
C457     C      0.002710000000     0.039000000000     0.819810000000    -0.00973736 
C458     C      0.978910000000     0.013110000000     0.876090000000    -0.0982691  
C459     C      0.037820000000     0.054370000000     0.803650000000    -0.0345142  
C460     C      0.984110000000     0.016690000000     0.910160000000     0.0758613  
C461     C      0.035970000000     0.081690000000     0.904700000000     0.104682   
C462     C      0.037500000000     0.049770000000     0.769950000000    -0.0356575  
C463     C      0.002260000000     0.026390000000     0.715370000000     0.0507154  
C464     C      0.003750000000     0.043780000000     0.855830000000     0.0561393  
C465     C      0.054090000000     0.113490000000     0.377690000000    -0.107178   
C466     C      0.027840000000     0.102170000000     0.158030000000     0.0759565  
C467     C      0.068200000000     0.075030000000     0.170520000000     0.0719695  
C468     C      0.027500000000     0.108750000000     0.191210000000    -0.0955322  
C469     C      0.006700000000     0.089430000000     0.262240000000    -0.0360583  
C470     C      0.001740000000     0.087660000000     0.295960000000    -0.0346763  
C471     C      0.043210000000     0.099880000000     0.250350000000    -0.00685098 
C472     C      0.068390000000     0.081100000000     0.203990000000    -0.0942561  
C473     C      0.033140000000     0.096260000000     0.318560000000    -0.0095429  
C474     C      0.994320000000     0.054490000000     0.365030000000    -0.0976542  
C475     C      0.070090000000     0.108540000000     0.306660000000    -0.0339941  
C476     C      0.991800000000     0.044170000000     0.398250000000     0.0780167  
C477     C      0.050630000000     0.102670000000     0.411080000000     0.108207   
C478     C      0.075060000000     0.110270000000     0.272900000000    -0.0360571  
C479     C      0.047140000000     0.097360000000     0.214740000000     0.0500574  
C480     C      0.026720000000     0.088550000000     0.354220000000     0.0569365  
C481     C      0.705870000000     0.670840000000     0.088690000000    -0.106006   
C482     C      0.904700000000     0.899200000000     0.028140000000     0.0727664  
C483     C      0.933160000000     0.889790000000     0.078100000000     0.0754832  
C484     C      0.871170000000     0.862780000000     0.032240000000    -0.0951843  
C485     C      0.840930000000     0.767840000000     0.068240000000    -0.0361243  
C486     C      0.808980000000     0.730310000000     0.071080000000    -0.0354243  
C487     C      0.835330000000     0.799760000000     0.063770000000    -0.00799707 
C488     C      0.900670000000     0.853170000000     0.082550000000    -0.0973905  
C489     C      0.770950000000     0.724170000000     0.070340000000    -0.00986221 
C490     C      0.732990000000     0.662270000000     0.041020000000    -0.0987807  
C491     C      0.765430000000     0.756210000000     0.067100000000    -0.0345543  
C492     C      0.697030000000     0.629940000000     0.033160000000     0.0816666  
C493     C      0.670170000000     0.637150000000     0.080830000000     0.10574    
C494     C      0.797350000000     0.793690000000     0.063510000000    -0.0360505  
C495     C      0.869270000000     0.839230000000     0.059520000000     0.05018    
C496     C      0.736840000000     0.684550000000     0.067700000000     0.0568114  
C497     C      0.391070000000     0.341320000000     0.001470000000    -0.109559   
C498     C      0.151370000000     0.199960000000     0.075940000000     0.0766786  
C499     C      0.180260000000     0.160810000000     0.075330000000     0.0809061  
C500     C      0.187600000000     0.233330000000     0.071290000000    -0.0944711  
C501     C      0.254050000000     0.285070000000     0.026930000000    -0.0352916  
C502     C      0.287560000000     0.312600000000     0.011320000000    -0.0341741  
C503     C      0.256610000000     0.262870000000     0.053750000000    -0.00645315 
C504     C      0.216910000000     0.193440000000     0.071200000000    -0.0933629  
C505     C      0.324540000000     0.318840000000     0.022250000000    -0.0104417  
C506     C      0.364160000000     0.383120000000     0.993690000000    -0.099735   
C507     C      0.327170000000     0.297320000000     0.049650000000    -0.0339722  
C508     C      0.399090000000     0.411570000000     0.980770000000     0.067823   
C509     C      0.425980000000     0.370460000000     0.988360000000     0.109089   
C510     C      0.293590000000     0.269570000000     0.065130000000    -0.0370256  
C511     C      0.220450000000     0.229980000000     0.066960000000     0.051279   
C512     C      0.360300000000     0.348040000000     0.005520000000     0.0549434  
C513     C      0.877510000000     0.042990000000     0.062440000000    -0.109579   
C514     C      0.661150000000     0.029790000000     0.083880000000     0.0724326  
C515     C      0.654830000000     0.005410000000     0.030670000000     0.0753065  
C516     C      0.692610000000     0.024100000000     0.092150000000    -0.0950514  
C517     C      0.773300000000     0.033560000000     0.093760000000    -0.0362461  
C518     C      0.808140000000     0.032960000000     0.096500000000    -0.03504    
C519     C      0.740400000000     0.004490000000     0.076600000000    -0.00725322 
C520     C      0.686190000000     0.999440000000     0.038080000000    -0.095145   
C521     C      0.810970000000     0.003350000000     0.082140000000    -0.0105253  
C522     C      0.860430000000     0.981100000000     0.087340000000    -0.0974773  
C523     C      0.777450000000     0.972680000000     0.067170000000    -0.034402   
C524     C      0.898220000000     0.988530000000     0.082240000000     0.0757669  
C525     C      0.914760000000     0.049790000000     0.057430000000     0.110952   
C526     C      0.742440000000     0.973260000000     0.064380000000    -0.0363238  
C527     C      0.705500000000     0.008650000000     0.069160000000     0.0492953  
C528     C      0.850050000000     0.008770000000     0.077490000000     0.0571155  
C529     C      0.341130000000     0.992530000000     0.985340000000    -0.105471   
C530     C      0.178970000000     0.076820000000     0.987090000000     0.0776437  
C531     C      0.136560000000     0.017460000000     0.960770000000     0.0743642  
C532     C      0.211300000000     0.073730000000     0.980640000000    -0.0931756  
C533     C      0.278720000000     0.069000000000     0.957110000000    -0.0355347  
C534     C      0.311480000000     0.064580000000     0.957780000000    -0.0342183  
C535     C      0.240900000000     0.036640000000     0.959540000000    -0.00634351 
C536     C      0.168450000000     0.013760000000     0.953380000000    -0.0941809  
C537     C      0.307560000000     0.027550000000     0.960060000000    -0.00827532 
C538     C      0.379430000000     0.051170000000     0.954510000000    -0.0949124  
C539     C      0.269490000000     0.995080000000     0.959900000000    -0.0345954  
C540     C      0.413180000000     0.050640000000     0.965820000000     0.0756033  
C541     C      0.375270000000     0.992160000000     0.995660000000     0.106509   
C542     C      0.236770000000     0.999540000000     0.960060000000    -0.0353985  
C543     C      0.206550000000     0.041660000000     0.963960000000     0.0494465  
C544     C      0.342890000000     0.023250000000     0.965910000000     0.0539208  
C545     C      0.111630000000     0.923900000000     0.099220000000    -0.107094   
C546     C      0.113580000000     0.707020000000     0.051640000000     0.0741249  
C547     C      0.046860000000     0.687560000000     0.055180000000     0.0724281  
C548     C      0.124430000000     0.745750000000     0.056110000000    -0.094454   
C549     C      0.133050000000     0.826930000000     0.048300000000    -0.0367289  
C550     C      0.138190000000     0.863960000000     0.051220000000    -0.0348576  
C551     C      0.106150000000     0.795770000000     0.067470000000    -0.00717756 
C552     C      0.056650000000     0.725770000000     0.059800000000    -0.095006   
C553     C      0.116690000000     0.870590000000     0.073480000000    -0.010038   
C554     C      0.109680000000     0.920810000000     0.040450000000    -0.0985011  
C555     C      0.092110000000     0.840020000000     0.094370000000    -0.0342772  
C556     C      0.098060000000     0.948240000000     0.037970000000     0.0784322  
C557     C      0.100430000000     0.952190000000     0.096090000000     0.106568   
C558     C      0.086870000000     0.803050000000     0.091350000000    -0.0367121  
C559     C      0.095840000000     0.755330000000     0.061110000000     0.0488613  
C560     C      0.114520000000     0.906670000000     0.071250000000     0.0561408  
C561     C      0.000620000000     0.345820000000     0.079570000000    -0.104763   
C562     C      0.104650000000     0.211360000000     0.004200000000     0.0711098  
C563     C      0.036320000000     0.175950000000     0.993310000000     0.0696594  
C564     C      0.102310000000     0.243610000000     0.013160000000    -0.0911323  
C565     C      0.082810000000     0.291630000000     0.056250000000    -0.0359375  
C566     C      0.075320000000     0.317560000000     0.071700000000    -0.0352507  
C567     C      0.060710000000     0.271980000000     0.027900000000    -0.00616843 
C568     C      0.032910000000     0.207310000000     0.001760000000    -0.0921948  
C569     C      0.045260000000     0.324220000000     0.059440000000    -0.00897263 
C570     C      0.069770000000     0.389690000000     0.082540000000    -0.0952476  
C571     C      0.023470000000     0.304970000000     0.030980000000    -0.0347718  
C572     C      0.063070000000     0.418900000000     0.091410000000     0.0705038  
C573     C      0.994650000000     0.375630000000     0.089450000000     0.100669   
C574     C      0.031270000000     0.279490000000     0.015290000000    -0.0364804  
C575     C      0.065750000000     0.241210000000     0.013410000000     0.0470259  
C576     C      0.038380000000     0.353230000000     0.074640000000     0.053238   
Co1      Co     0.030580000000     0.089980000000     0.049160000000     0.909782   
Co2      Co     0.026090000000     0.998470000000     0.005280000000     1.11618    
Co3      Co     0.078190000000     0.089190000000     0.016590000000     1.09309    
Co4      Co     0.028110000000     0.012190000000     0.082220000000     1.10234    
Co5      Co     0.058020000000     0.032500000000     0.502070000000     1.06855    
Co6      Co     0.983860000000     0.045910000000     0.548920000000     1.11387    
Co7      Co     0.987380000000     0.988950000000     0.499870000000     0.920437   
Co8      Co     0.072350000000     0.074140000000     0.569860000000     1.12165    
Co9      Co     0.052790000000     0.505540000000     0.041300000000     0.757646   
Co10     Co     0.024770000000     0.579730000000     0.094660000000     1.15337    
Co11     Co     0.005380000000     0.495660000000     0.081980000000     1.08462    
Co12     Co     0.083920000000     0.578790000000     0.049350000000     1.15286    
Co13     Co     0.047430000000     0.495090000000     0.560020000000     1.11319    
Co14     Co     0.048020000000     0.587760000000     0.581370000000     1.07627    
Co15     Co     0.983660000000     0.501690000000     0.595720000000     1.14141    
Co16     Co     0.079320000000     0.582360000000     0.534400000000     0.885246   
Co17     Co     0.479980000000     0.034300000000     0.067580000000     1.0837     
Co18     Co     0.551070000000     0.022090000000     0.000260000000     1.05039    
Co19     Co     0.530190000000     0.080790000000     0.023180000000     1.04718    
Co20     Co     0.543600000000     0.000390000000     0.076640000000     1.14658    
Co21     Co     0.486260000000     0.028900000000     0.572320000000     1.04558    
Co22     Co     0.567350000000     0.029040000000     0.513720000000     1.17682    
Co23     Co     0.515900000000     0.071350000000     0.521530000000     0.989903   
Co24     Co     0.514430000000     0.972110000000     0.570560000000     1.07874    
Co25     Co     0.547070000000     0.484820000000     0.997370000000     1.12676    
Co26     Co     0.554080000000     0.575960000000     0.029010000000     1.1343     
Co27     Co     0.476320000000     0.492730000000     0.014660000000     1.13125    
Co28     Co     0.582210000000     0.575430000000     0.976560000000     0.907365   
Co29     Co     0.522860000000     0.488960000000     0.484520000000     1.06207    
Co30     Co     0.520470000000     0.575980000000     0.518450000000     1.13366    
Co31     Co     0.503430000000     0.490960000000     0.539430000000     0.897257   
Co32     Co     0.578130000000     0.577970000000     0.467560000000     1.15228    
H1       H      0.582170000000     0.519260000000     0.619000000000     0.0268425  
H2       H      0.560120000000     0.582860000000     0.892130000000     0.0219393  
H3       H      0.552890000000     0.488070000000     0.723960000000     0.0365522  
H4       H      0.533480000000     0.579470000000     0.785980000000     0.0363881  
H5       H      0.563630000000     0.587320000000     0.834460000000     0.0530352  
H6       H      0.542880000000     0.590510000000     0.728410000000     0.0359336  
H7       H      0.517750000000     0.464210000000     0.830730000000     0.0547718  
H8       H      0.583940000000     0.515940000000     0.678320000000     0.0514764  
H9       H      0.521720000000     0.578750000000     0.677290000000     0.0510371  
H10      H      0.549800000000     0.480760000000     0.783050000000     0.0362818  
H11      H      0.524490000000     0.584810000000     0.618660000000     0.0230229  
H12      H      0.499310000000     0.414310000000     0.875150000000     0.032089   
H13      H      0.539450000000     0.577470000000     0.375720000000     0.0261366  
H14      H      0.451350000000     0.468200000000     0.105730000000     0.0225689  
H15      H      0.464030000000     0.540400000000     0.282910000000     0.0377268  
H16      H      0.502380000000     0.467960000000     0.213700000000     0.039372   
H17      H      0.443670000000     0.454780000000     0.164440000000     0.0547068  
H18      H      0.511250000000     0.465170000000     0.273630000000     0.0379103  
H19      H      0.517960000000     0.576170000000     0.183130000000     0.0567222  
H20      H      0.520410000000     0.568870000000     0.318490000000     0.053122   
H21      H      0.485790000000     0.447970000000     0.328950000000     0.0528949  
H22      H      0.457040000000     0.544430000000     0.223250000000     0.0371027  
H23      H      0.506540000000     0.458000000000     0.387230000000     0.0305173  
H24      H      0.547700000000     0.633300000000     0.145130000000     0.0294751  
H25      H      0.467390000000     0.872500000000     0.516050000000     0.0244861  
H26      H      0.588960000000     0.682370000000     0.436990000000     0.0224765  
H27      H      0.464960000000     0.788780000000     0.434530000000     0.0376748  
H28      H      0.583720000000     0.781630000000     0.466160000000     0.036582   
H29      H      0.586390000000     0.741040000000     0.428370000000     0.0529788  
H30      H      0.581640000000     0.839030000000     0.478580000000     0.0372884  
H31      H      0.464040000000     0.677820000000     0.447390000000     0.0547697  
H32      H      0.465240000000     0.817360000000     0.491010000000     0.0530578  
H33      H      0.576620000000     0.894480000000     0.449970000000     0.0531741  
H34      H      0.467410000000     0.731410000000     0.420450000000     0.0357032  
H35      H      0.577950000000     0.948630000000     0.474980000000     0.0203942  
H36      H      0.417390000000     0.607730000000     0.451090000000     0.0290692  
H37      H      0.490950000000     0.369570000000     0.473090000000     0.0303158  
H38      H      0.434020000000     0.087620000000     0.618510000000     0.0300118  
H39      H      0.415460000000     0.251620000000     0.521640000000     0.0372304  
H40      H      0.491540000000     0.227880000000     0.611550000000     0.0395055  
H41      H      0.420930000000     0.141130000000     0.620440000000     0.0555407  
H42      H      0.508710000000     0.294150000000     0.596960000000     0.0375711  
H43      H      0.472290000000     0.183460000000     0.527140000000     0.0595345  
H44      H      0.468080000000     0.303660000000     0.493150000000     0.052112   
H45      H      0.495190000000     0.344820000000     0.592690000000     0.052214   
H46      H      0.399630000000     0.185340000000     0.535670000000     0.0374631  
H47      H      0.519310000000     0.409910000000     0.571900000000     0.0258803  
H48      H      0.498590000000     0.159130000000     0.488530000000     0.0383312  
H49      H      0.503530000000     0.003570000000     0.918790000000     0.0254454  
H50      H      0.552470000000     0.100190000000     0.645580000000     0.036302   
H51      H      0.489630000000     0.022150000000     0.810840000000     0.0379886  
H52      H      0.615410000000     0.117640000000     0.763130000000     0.038131   
H53      H      0.559960000000     0.114560000000     0.703320000000     0.0569096  
H54      H      0.606820000000     0.120260000000     0.821910000000     0.037217   
H55      H      0.568110000000     0.013230000000     0.726830000000     0.0571137  
H56      H      0.511560000000     0.006970000000     0.860770000000     0.0520792  
H57      H      0.573640000000     0.131920000000     0.864090000000     0.0530124  
H58      H      0.499340000000     0.018650000000     0.753110000000     0.0406418  
H59      H      0.566280000000     0.127290000000     0.923470000000     0.0303664  
H60      H      0.575650000000     0.969170000000     0.691360000000     0.0312552  
H61      H      0.512360000000     0.091260000000     0.151400000000     0.0213187  
H62      H      0.554510000000     0.009560000000     0.422780000000     0.0219096  
H63      H      0.564590000000     0.132580000000     0.263320000000     0.0373749  
H64      H      0.531200000000     0.004660000000     0.313650000000     0.0367754  
H65      H      0.563380000000     0.020320000000     0.365050000000     0.0533378  
H66      H      0.543110000000     0.016200000000     0.255530000000     0.0382615  
H67      H      0.505850000000     0.087040000000     0.361570000000     0.0556579  
H68      H      0.518770000000     0.100790000000     0.210360000000     0.0532666  
H69      H      0.601510000000     0.061100000000     0.218930000000     0.0534329  
H70      H      0.554460000000     0.121860000000     0.322400000000     0.0366864  
H71      H      0.594640000000     0.051970000000     0.160060000000     0.0221214  
H72      H      0.473770000000     0.101090000000     0.404120000000     0.0301995  
H73      H      0.511700000000     0.893690000000     0.063250000000     0.0216282  
H74      H      0.549200000000     0.655830000000     0.952540000000     0.0296727  
H75      H      0.465220000000     0.767680000000     0.032190000000     0.0363235  
H76      H      0.557110000000     0.780180000000     0.949480000000     0.0372688  
H77      H      0.525560000000     0.700850000000     0.944350000000     0.0546257  
H78      H      0.538420000000     0.829650000000     0.951240000000     0.0370916  
H79      H      0.561830000000     0.738150000000     0.043790000000     0.0562382  
H80      H      0.505460000000     0.832560000000     0.051780000000     0.0520732  
H81      H      0.490020000000     0.851990000000     0.948220000000     0.0522785  
H82      H      0.485150000000     0.719290000000     0.031060000000     0.0357323  
H83      H      0.496760000000     0.914230000000     0.960810000000     0.0230339  
H84      H      0.602410000000     0.725550000000     0.085280000000     0.0290472  
H85      H      0.535070000000     0.189560000000     0.011140000000     0.0320976  
H86      H      0.440680000000     0.392670000000     0.066340000000     0.0230389  
H87      H      0.449960000000     0.234960000000     0.035950000000     0.0380297  
H88      H      0.515360000000     0.309110000000     0.137280000000     0.0361062  
H89      H      0.426480000000     0.328110000000     0.082330000000     0.0511522  
H90      H      0.518220000000     0.250810000000     0.126590000000     0.0381019  
H91      H      0.548290000000     0.372170000000     0.107420000000     0.0555769  
H92      H      0.522310000000     0.239600000000     0.027280000000     0.0545212  
H93      H      0.464580000000     0.170250000000     0.111980000000     0.0530127  
H94      H      0.446410000000     0.292400000000     0.046660000000     0.0348852  
H95      H      0.476720000000     0.120030000000     0.094790000000     0.021314   
H96      H      0.603740000000     0.440060000000     0.111810000000     0.030158   
H97      H      0.661240000000     0.119940000000     0.496590000000     0.0202107  
H98      H      0.892650000000     0.448210000000     0.535670000000     0.0263268  
H99      H      0.775210000000     0.222650000000     0.541820000000     0.0363782  
H100     H      0.784800000000     0.342960000000     0.493040000000     0.0367434  
H101     H      0.831380000000     0.390570000000     0.526840000000     0.0531881  
H102     H      0.721100000000     0.284070000000     0.495600000000     0.0382769  
H103     H      0.890220000000     0.328350000000     0.509430000000     0.0546441  
H104     H      0.724010000000     0.178900000000     0.496170000000     0.0530733  
H105     H      0.675760000000     0.237910000000     0.543660000000     0.054379   
H106     H      0.838780000000     0.281790000000     0.540980000000     0.0355777  
H107     H      0.612760000000     0.177630000000     0.544420000000     0.0279819  
H108     H      0.959990000000     0.349460000000     0.508080000000     0.0300209  
H109     H      0.131040000000     0.638970000000     0.655720000000     0.0308774  
H110     H      0.425460000000     0.883240000000     0.579530000000     0.024638   
H111     H      0.227190000000     0.767180000000     0.649420000000     0.0393569  
H112     H      0.358870000000     0.782350000000     0.650740000000     0.0361083  
H113     H      0.375310000000     0.823880000000     0.601390000000     0.0534233  
H114     H      0.301380000000     0.717490000000     0.650750000000     0.03734    
H115     H      0.350800000000     0.886080000000     0.669860000000     0.0548936  
H116     H      0.189970000000     0.694070000000     0.679470000000     0.0537492  
H117     H      0.252970000000     0.696400000000     0.596600000000     0.0539451  
H118     H      0.284650000000     0.832290000000     0.648280000000     0.037375   
H119     H      0.193640000000     0.642780000000     0.573010000000     0.0250949  
H120     H      0.380510000000     0.956560000000     0.678770000000     0.0298885  
H121     H      0.666510000000     0.567180000000     0.448040000000     0.0216451  
H122     H      0.904410000000     0.530010000000     0.598710000000     0.0230424  
H123     H      0.767460000000     0.539130000000     0.461720000000     0.0378871  
H124     H      0.818360000000     0.571350000000     0.577100000000     0.0369595  
H125     H      0.846020000000     0.530090000000     0.582540000000     0.0541649  
H126     H      0.752210000000     0.557140000000     0.561870000000     0.0382746  
H127     H      0.900210000000     0.600380000000     0.497470000000     0.0554135  
H128     H      0.731040000000     0.576660000000     0.459730000000     0.0535842  
H129     H      0.687860000000     0.496520000000     0.541940000000     0.0545127  
H130     H      0.833480000000     0.552290000000     0.477070000000     0.036962   
H131     H      0.622930000000     0.487310000000     0.529420000000     0.031461   
H132     H      0.965680000000     0.625540000000     0.476310000000     0.0288308  
H133     H      0.411110000000     0.488080000000     0.592360000000     0.0215899  
H134     H      0.161510000000     0.551750000000     0.497000000000     0.022578   
H135     H      0.329900000000     0.533900000000     0.593420000000     0.0373865  
H136     H      0.219980000000     0.479180000000     0.509710000000     0.0362529  
H137     H      0.214640000000     0.538060000000     0.497140000000     0.0528501  
H138     H      0.269850000000     0.460580000000     0.510240000000     0.0368074  
H139     H      0.214290000000     0.527480000000     0.602660000000     0.0554993  
H140     H      0.345640000000     0.477770000000     0.598840000000     0.0524143  
H141     H      0.339780000000     0.506630000000     0.496030000000     0.0540071  
H142     H      0.280830000000     0.553090000000     0.592570000000     0.0359448  
H143     H      0.404240000000     0.517270000000     0.490770000000     0.0329707  
H144     H      0.181600000000     0.543580000000     0.642880000000     0.0302424  
H145     H      0.062430000000     0.619430000000     0.958130000000     0.0324733  
H146     H      0.994520000000     0.501560000000     0.691660000000     0.0268012  
H147     H      0.081550000000     0.625280000000     0.846120000000     0.0388857  
H148     H      0.961400000000     0.524000000000     0.788680000000     0.0370174  
H149     H      0.994760000000     0.509100000000     0.749260000000     0.0546511  
H150     H      0.967390000000     0.522720000000     0.848540000000     0.0385732  
H151     H      0.041830000000     0.631540000000     0.734690000000     0.0550585  
H152     H      0.050620000000     0.628130000000     0.899740000000     0.0547887  
H153     H      0.013760000000     0.508310000000     0.884690000000     0.0541869  
H154     H      0.076010000000     0.626200000000     0.785990000000     0.0372367  
H155     H      0.026190000000     0.500650000000     0.942680000000     0.0277348  
H156     H      0.062610000000     0.673380000000     0.685160000000     0.0281671  
H157     H      0.040980000000     0.468610000000     0.462350000000     0.0234376  
H158     H      0.013520000000     0.563590000000     0.188480000000     0.0233179  
H159     H      0.074380000000     0.497050000000     0.353340000000     0.0376557  
H160     H      0.970850000000     0.505590000000     0.285400000000     0.0378254  
H161     H      0.011400000000     0.553980000000     0.246520000000     0.0533446  
H162     H      0.969410000000     0.504000000000     0.345030000000     0.0379543  
H163     H      0.046180000000     0.469120000000     0.239920000000     0.0552363  
H164     H      0.035440000000     0.458640000000     0.403250000000     0.0522892  
H165     H      0.011820000000     0.552200000000     0.387370000000     0.0525281  
H166     H      0.076340000000     0.499400000000     0.293270000000     0.036946   
H167     H      0.017810000000     0.561610000000     0.446050000000     0.0286837  
H168     H      0.064770000000     0.446610000000     0.192780000000     0.0303482  
H169     H      0.637080000000     0.163440000000     0.064130000000     0.0304772  
H170     H      0.963370000000     0.389540000000     0.020370000000     0.0258321  
H171     H      0.734260000000     0.279920000000     0.034160000000     0.0380625  
H172     H      0.847890000000     0.281330000000     0.989890000000     0.0355598  
H173     H      0.902730000000     0.328760000000     0.016340000000     0.0508336  
H174     H      0.787210000000     0.220150000000     0.994900000000     0.0366515  
H175     H      0.840520000000     0.390770000000     0.000550000000     0.0533777  
H176     H      0.699780000000     0.222010000000     0.061600000000     0.0531082  
H177     H      0.723490000000     0.179040000000     0.976270000000     0.0514564  
H178     H      0.795650000000     0.340290000000     0.031910000000     0.0365194  
H179     H      0.661030000000     0.119650000000     0.980780000000     0.023808   
H180     H      0.865540000000     0.461490000000     0.991790000000     0.0306956  
H181     H      0.460690000000     0.891110000000     0.104760000000     0.0204409  
H182     H      0.122540000000     0.673340000000     0.132030000000     0.0230603  
H183     H      0.351640000000     0.785010000000     0.150310000000     0.0364814  
H184     H      0.231020000000     0.764510000000     0.088850000000     0.0371113  
H185     H      0.185570000000     0.731330000000     0.135310000000     0.0537538  
H186     H      0.291490000000     0.825320000000     0.081950000000     0.0368653  
H187     H      0.240680000000     0.664350000000     0.123490000000     0.0555988  
H188     H      0.403240000000     0.827750000000     0.114190000000     0.0515227  
H189     H      0.332940000000     0.881920000000     0.111440000000     0.0525938  
H190     H      0.290570000000     0.723130000000     0.156480000000     0.0365226  
H191     H      0.389960000000     0.943710000000     0.100990000000     0.0236752  
H192     H      0.212830000000     0.592860000000     0.122950000000     0.0317912  
H193     H      0.684650000000     0.564120000000     0.953960000000     0.0208222  
H194     H      0.889140000000     0.450580000000     0.074100000000     0.0308732  
H195     H      0.762680000000     0.497240000000     0.972070000000     0.0381411  
H196     H      0.779680000000     0.500210000000     0.093870000000     0.0377574  
H197     H      0.826030000000     0.440530000000     0.051310000000     0.0526373  
H198     H      0.726320000000     0.506140000000     0.067050000000     0.040179   
H199     H      0.855870000000     0.552520000000     0.085490000000     0.0582455  
H200     H      0.739280000000     0.552480000000     0.967990000000     0.0526799  
H201     H      0.665260000000     0.458420000000     0.032470000000     0.053995   
H202     H      0.816610000000     0.491030000000     0.999370000000     0.0380271  
H203     H      0.612980000000     0.470900000000     0.018650000000     0.0132524  
H204     H      0.912260000000     0.599770000000     0.120260000000     0.0331853  
H205     H      0.486790000000     0.625860000000     0.022040000000     0.0307455  
H206     H      0.157660000000     0.521610000000     0.041820000000     0.0266145  
H207     H      0.366110000000     0.640900000000     0.974760000000     0.0390703  
H208     H      0.283410000000     0.551250000000     0.061880000000     0.0362792  
H209     H      0.220290000000     0.528590000000     0.035090000000     0.0528757  
H210     H      0.342700000000     0.551970000000     0.048650000000     0.0392811  
H211     H      0.271900000000     0.652290000000     0.028620000000     0.0549893  
H212     H      0.436300000000     0.642450000000     0.027620000000     0.0532484  
H213     H      0.354850000000     0.541530000000     0.972630000000     0.0544957  
H214     H      0.305930000000     0.639720000000     0.987210000000     0.0377772  
H215     H      0.405640000000     0.525910000000     0.967000000000     0.0253379  
H216     H      0.245060000000     0.694750000000     0.035090000000     0.0296648  
H217     H      0.899500000000     0.951790000000     0.594870000000     0.0218154  
H218     H      0.679010000000     0.636680000000     0.518680000000     0.0264457  
H219     H      0.786700000000     0.848230000000     0.571690000000     0.0360965  
H220     H      0.778000000000     0.720820000000     0.590330000000     0.0370548  
H221     H      0.737990000000     0.690540000000     0.540450000000     0.0536266  
H222     H      0.840850000000     0.780040000000     0.599080000000     0.0370947  
H223     H      0.671330000000     0.729440000000     0.588220000000     0.0552594  
H224     H      0.840420000000     0.891640000000     0.607190000000     0.0510979  
H225     H      0.886880000000     0.828450000000     0.563430000000     0.052249   
H226     H      0.724120000000     0.789240000000     0.563400000000     0.0363902  
H227     H      0.945750000000     0.888880000000     0.552320000000     0.0280511  
H228     H      0.600800000000     0.700800000000     0.593390000000     0.0304627  
H229     H      0.385290000000     0.422450000000     0.523080000000     0.0260194  
H230     H      0.154360000000     0.116680000000     0.462800000000     0.0338594  
H231     H      0.332490000000     0.297970000000     0.440360000000     0.0386466  
H232     H      0.206490000000     0.278910000000     0.474290000000     0.0381131  
H233     H      0.203240000000     0.176910000000     0.437060000000     0.0537788  
H234     H      0.261100000000     0.344510000000     0.466170000000     0.0374385  
H235     H      0.212340000000     0.238580000000     0.523410000000     0.0572178  
H236     H      0.322580000000     0.366720000000     0.508730000000     0.0540202  
H237     H      0.359720000000     0.371560000000     0.410830000000     0.0538671  
H238     H      0.277800000000     0.232010000000     0.448990000000     0.0370884  
H239     H      0.422380000000     0.429050000000     0.425750000000     0.0293495  
H240     H      0.187560000000     0.216110000000     0.578350000000     0.0323444  
H241     H      0.929130000000     0.078020000000     0.506320000000     0.0222769  
H242     H      0.609120000000     0.956460000000     0.586110000000     0.0222594  
H243     H      0.806840000000     0.061690000000     0.507090000000     0.0369198  
H244     H      0.735510000000     0.973000000000     0.599140000000     0.0355001  
H245     H      0.669380000000     0.956400000000     0.582260000000     0.052821   
H246     H      0.790470000000     0.971120000000     0.577610000000     0.0357641  
H247     H      0.732040000000     0.081030000000     0.576310000000     0.0551214  
H248     H      0.873020000000     0.078470000000     0.525170000000     0.0507556  
H249     H      0.809140000000     0.953410000000     0.526660000000     0.0519515  
H250     H      0.752250000000     0.063490000000     0.528270000000     0.0361572  
H251     H      0.866360000000     0.954030000000     0.508150000000     0.0252315  
H252     H      0.709600000000     0.128300000000     0.582370000000     0.0314879  
H253     H      0.409440000000     0.051420000000     0.480740000000     0.0247091  
H254     H      0.169760000000     0.066110000000     0.566330000000     0.0240842  
H255     H      0.282250000000     0.021580000000     0.473500000000     0.035872   
H256     H      0.214130000000     0.952480000000     0.574150000000     0.0382147  
H257     H      0.222490000000     0.055530000000     0.554820000000     0.0562043  
H258     H      0.271260000000     0.950120000000     0.560220000000     0.0383132  
H259     H      0.140040000000     0.935550000000     0.536960000000     0.0575906  
H260     H      0.345090000000     0.042510000000     0.481190000000     0.0513835  
H261     H      0.306370000000     0.932880000000     0.532890000000     0.053381   
H262     H      0.228090000000     0.027360000000     0.490340000000     0.0380218  
H263     H      0.372590000000     0.945440000000     0.534940000000     0.0314907  
H264     H      0.068420000000     0.896970000000     0.544940000000     0.0321827  
H265     H      0.074240000000     0.672590000000     0.491970000000     0.0267411  
H266     H      0.998910000000     0.910910000000     0.460240000000     0.0230581  
H267     H      0.121670000000     0.805510000000     0.472950000000     0.0377277  
H268     H      0.024940000000     0.833620000000     0.515500000000     0.0369523  
H269     H      0.005420000000     0.854480000000     0.464590000000     0.0540127  
H270     H      0.027350000000     0.777060000000     0.535980000000     0.0378795  
H271     H      0.130330000000     0.926980000000     0.468490000000     0.0553749  
H272     H      0.078780000000     0.732560000000     0.471190000000     0.0525029  
H273     H      0.070820000000     0.761010000000     0.569900000000     0.0527348  
H274     H      0.118810000000     0.862610000000     0.451680000000     0.036666   
H275     H      0.065920000000     0.700710000000     0.589870000000     0.0316386  
H276     H      0.171300000000     0.997200000000     0.455550000000     0.0289596  
H277     H      0.077630000000     0.444720000000     0.632390000000     0.0250741  
H278     H      0.984300000000     0.141140000000     0.540000000000     0.0231482  
H279     H      0.035460000000     0.306850000000     0.666050000000     0.0381203  
H280     H      0.000920000000     0.258180000000     0.552180000000     0.0358584  
H281     H      0.976490000000     0.193140000000     0.555960000000     0.0520466  
H282     H      0.993980000000     0.312390000000     0.566760000000     0.03768    
H283     H      0.074510000000     0.229650000000     0.625250000000     0.0551159  
H284     H      0.076010000000     0.383090000000     0.633730000000     0.0535119  
H285     H      0.951260000000     0.323980000000     0.616090000000     0.053363   
H286     H      0.039770000000     0.250340000000     0.652530000000     0.0360288  
H287     H      0.953540000000     0.385970000000     0.616080000000     0.0237776  
H288     H      0.115370000000     0.201880000000     0.642160000000     0.0306989  
H289     H      0.055690000000     0.018370000000     0.658200000000     0.0253046  
H290     H      0.965020000000     0.991300000000     0.924640000000     0.0257389  
H291     H      0.065140000000     0.062710000000     0.758280000000     0.0376178  
H292     H      0.939640000000     0.006410000000     0.813180000000     0.0368053  
H293     H      0.956830000000     0.985670000000     0.865830000000     0.0534386  
H294     H      0.939060000000     0.998010000000     0.754110000000     0.0370164  
H295     H      0.049350000000     0.103560000000     0.855050000000     0.0559745  
H296     H      0.050050000000     0.014890000000     0.717250000000     0.0531221  
H297     H      0.954430000000     0.036840000000     0.703540000000     0.0525356  
H298     H      0.065710000000     0.069740000000     0.817120000000     0.037872   
H299     H      0.960230000000     0.039210000000     0.644630000000     0.0211475  
H300     H      0.088070000000     0.154300000000     0.894890000000     0.0309481  
H301     H      0.084120000000     0.061440000000     0.163220000000     0.0245509  
H302     H      0.967180000000     0.016340000000     0.405000000000     0.0265747  
H303     H      0.103650000000     0.118930000000     0.264490000000     0.0377592  
H304     H      0.973020000000     0.078490000000     0.304360000000     0.0370919  
H305     H      0.972150000000     0.034500000000     0.347760000000     0.0541732  
H306     H      0.981460000000     0.080950000000     0.245570000000     0.0376035  
H307     H      0.078240000000     0.141130000000     0.369980000000     0.056073   
H308     H      0.083790000000     0.071620000000     0.221370000000     0.0527663  
H309     H      0.011380000000     0.122130000000     0.198380000000     0.0529152  
H310     H      0.094810000000     0.115060000000     0.323460000000     0.0381345  
H311     H      0.011580000000     0.110750000000     0.140700000000     0.0247452  
H312     H      0.110160000000     0.171180000000     0.423470000000     0.0307799  
H313     H      0.956810000000     0.899280000000     0.096690000000     0.0220185  
H314     H      0.694290000000     0.615200000000     0.010630000000     0.0226774  
H315     H      0.792380000000     0.817910000000     0.060350000000     0.037505   
H316     H      0.813840000000     0.705990000000     0.073100000000     0.0373679  
H317     H      0.756580000000     0.671680000000     0.024550000000     0.0552823  
H318     H      0.869990000000     0.771840000000     0.068490000000     0.0377705  
H319     H      0.708910000000     0.687360000000     0.110070000000     0.056168   
H320     H      0.900090000000     0.835860000000     0.104030000000     0.0529886  
H321     H      0.847310000000     0.852750000000     0.013860000000     0.0533206  
H322     H      0.736270000000     0.752060000000     0.065830000000     0.039627   
H323     H      0.905540000000     0.916550000000     0.006590000000     0.0255176  
H324     H      0.643750000000     0.646600000000     0.134110000000     0.0287963  
H325     H      0.178210000000     0.132710000000     0.075960000000     0.0329354  
H326     H      0.400950000000     0.438830000000     0.973310000000     0.0154794  
H327     H      0.296510000000     0.253030000000     0.085820000000     0.03707    
H328     H      0.284270000000     0.328210000000     0.990080000000     0.036958   
H329     H      0.341020000000     0.389520000000     0.995770000000     0.0513405  
H330     H      0.225920000000     0.280010000000     0.017080000000     0.0382234  
H331     H      0.387990000000     0.313500000000     0.008580000000     0.0546374  
H332     H      0.241580000000     0.189520000000     0.068490000000     0.0541279  
H333     H      0.189390000000     0.261260000000     0.069100000000     0.0505088  
H334     H      0.355220000000     0.301930000000     0.059210000000     0.0338132  
H335     H      0.126100000000     0.203350000000     0.076910000000     0.0237019  
H336     H      0.449540000000     0.320420000000     0.990550000000     0.0305571  
H337     H      0.640760000000     0.997800000000     0.006320000000     0.0224402  
H338     H      0.905370000000     0.966450000000     0.089970000000     0.0213224  
H339     H      0.717390000000     0.949980000000     0.051590000000     0.0370397  
H340     H      0.833650000000     0.056980000000     0.108170000000     0.0372807  
H341     H      0.839700000000     0.954180000000     0.099110000000     0.0537363  
H342     H      0.773010000000     0.058150000000     0.103340000000     0.0371378  
H343     H      0.869960000000     0.064820000000     0.054850000000     0.0576464  
H344     H      0.695670000000     0.988380000000     0.019210000000     0.0524577  
H345     H      0.706520000000     0.031540000000     0.116520000000     0.0516688  
H346     H      0.778970000000     0.949660000000     0.055750000000     0.0376082  
H347     H      0.651950000000     0.041530000000     0.102460000000     0.0224925  
H348     H      0.931160000000     0.119230000000     0.036960000000     0.0318057  
H349     H      0.107640000000     0.994740000000     0.952850000000     0.0197181  
H350     H      0.440920000000     0.074460000000     0.958110000000     0.0305916  
H351     H      0.208400000000     0.973710000000     0.961990000000     0.0356262  
H352     H      0.339960000000     0.090520000000     0.958010000000     0.037178   
H353     H      0.382380000000     0.074460000000     0.938030000000     0.0535081  
H354     H      0.283380000000     0.098100000000     0.955580000000     0.037179   
H355     H      0.313520000000     0.969530000000     0.993890000000     0.054519   
H356     H      0.163010000000     0.988860000000     0.939740000000     0.0509522  
H357     H      0.239700000000     0.095860000000     0.990010000000     0.0530794  
H358     H      0.264750000000     0.965950000000     0.960560000000     0.0354889  
H359     H      0.184390000000     0.101780000000     0.000740000000     0.032425   
H360     H      0.330750000000     0.923520000000     0.021200000000     0.0290287  
H361     H      0.016180000000     0.665580000000     0.055020000000     0.0252191  
H362     H      0.093000000000     0.956820000000     0.013330000000     0.0217914  
H363     H      0.066540000000     0.779770000000     0.106950000000     0.0366716  
H364     H      0.157650000000     0.887020000000     0.034990000000     0.0357402  
H365     H      0.111870000000     0.908680000000     0.018080000000     0.0529584  
H366     H      0.148470000000     0.822280000000     0.029780000000     0.0369252  
H367     H      0.116330000000     0.914070000000     0.123400000000     0.0553388  
H368     H      0.033530000000     0.732050000000     0.062530000000     0.0525905  
H369     H      0.155060000000     0.767800000000     0.056710000000     0.0510572  
H370     H      0.074870000000     0.843950000000     0.111590000000     0.0367453  
H371     H      0.136630000000     0.700550000000     0.049020000000     0.0313935  
H372     H      0.104920000000     0.954520000000     0.159940000000     0.0310512  
H373     H      0.009650000000     0.149730000000     0.986020000000     0.028409   
H374     H      0.088670000000     0.447190000000     0.095620000000     0.0307031  
H375     H      0.014080000000     0.265630000000     0.993190000000     0.0367607  
H376     H      0.092700000000     0.332020000000     0.093570000000     0.0368406  
H377     H      0.099510000000     0.396540000000     0.079850000000     0.0527654  
H378     H      0.105220000000     0.286210000000     0.067110000000     0.0366164  
H379     H      0.975870000000     0.317080000000     0.075230000000     0.0542071  
H380     H      0.004020000000     0.203710000000     0.001210000000     0.0509828  
H381     H      0.128750000000     0.269620000000     0.021010000000     0.0494729  
H382     H      0.000810000000     0.310210000000     0.020410000000     0.0369318  
H383     H      0.132920000000     0.213390000000     0.006180000000     0.0285801  
H384     H      0.920760000000     0.324290000000     0.091180000000     0.0299061  
N1       N      0.538960000000     0.521530000000     0.896580000000    -0.201763   
N2       N      0.552390000000     0.551450000000     0.614410000000    -0.201645   
N3       N      0.490460000000     0.529460000000     0.110570000000    -0.212987   
N4       N      0.524300000000     0.518300000000     0.385870000000    -0.204683   
N5       N      0.528780000000     0.646550000000     0.448670000000    -0.2156     
N6       N      0.523240000000     0.914350000000     0.498080000000    -0.213189   
N7       N      0.462600000000     0.106320000000     0.572840000000    -0.198646   
N8       N      0.506260000000     0.394450000000     0.520950000000    -0.191384   
N9       N      0.553380000000     0.046900000000     0.652390000000    -0.203053   
N10      N      0.534540000000     0.065210000000     0.925410000000    -0.203588   
N11      N      0.527090000000     0.043690000000     0.426780000000    -0.212405   
N12      N      0.551220000000     0.068710000000     0.151870000000    -0.217492   
N13      N      0.567710000000     0.669350000000     0.003400000000    -0.188817   
N14      N      0.506140000000     0.909040000000     0.012750000000    -0.206404   
N15      N      0.502900000000     0.418940000000     0.074400000000    -0.209513   
N16      N      0.506570000000     0.151110000000     0.051630000000    -0.194533   
N17      N      0.927930000000     0.422020000000     0.530980000000    -0.2095     
N18      N      0.632320000000     0.144520000000     0.520420000000    -0.212732   
N19      N      0.418170000000     0.920510000000     0.611160000000    -0.206656   
N20      N      0.157910000000     0.638050000000     0.612120000000    -0.204841   
N21      N      0.937060000000     0.564000000000     0.557290000000    -0.212083   
N22      N      0.640260000000     0.527130000000     0.488320000000    -0.211416   
N23      N      0.156780000000     0.546140000000     0.549280000000    -0.212741   
N24      N      0.412700000000     0.505090000000     0.541620000000    -0.209193   
N25      N      0.018160000000     0.561980000000     0.678460000000    -0.20651    
N26      N      0.045460000000     0.559520000000     0.954570000000    -0.204636   
N27      N      0.030410000000     0.521700000000     0.178890000000    -0.206628   
N28      N      0.030540000000     0.516300000000     0.458600000000    -0.200306   
N29      N      0.937250000000     0.425180000000     0.015980000000    -0.205062   
N30      N      0.643920000000     0.137290000000     0.022330000000    -0.196967   
N31      N      0.144190000000     0.635160000000     0.123260000000    -0.206732   
N32      N      0.429510000000     0.921960000000     0.101430000000    -0.216528   
N33      N      0.909410000000     0.508160000000     0.090000000000    -0.207331   
N34      N      0.645760000000     0.519630000000     0.986450000000    -0.207081   
N35      N      0.177130000000     0.582530000000     0.038140000000    -0.190483   
N36      N      0.449480000000     0.573900000000     0.995220000000    -0.210875   
N37      N      0.639990000000     0.651780000000     0.539200000000    -0.209358   
N38      N      0.926100000000     0.924840000000     0.571230000000    -0.201397   
N39      N      0.153880000000     0.143190000000     0.507130000000    -0.209559   
N40      N      0.408590000000     0.428940000000     0.475710000000    -0.205787   
N41      N      0.635060000000     0.018130000000     0.579900000000    -0.215328   
N42      N      0.902030000000     0.016030000000     0.506650000000    -0.211463   
N43      N      0.124000000000     0.007800000000     0.556180000000    -0.211542   
N44      N      0.396000000000     0.000220000000     0.509440000000    -0.206285   
N45      N      0.060480000000     0.952040000000     0.464420000000    -0.196478   
N46      N      0.069270000000     0.682030000000     0.542380000000    -0.19061    
N47      N      0.032690000000     0.153020000000     0.574090000000    -0.210353   
N48      N      0.015890000000     0.419770000000     0.622960000000    -0.211379   
N49      N      0.013930000000     0.049700000000     0.924660000000    -0.208608   
N50      N      0.009150000000     0.030180000000     0.647150000000    -0.208481   
N51      N      0.021110000000     0.066480000000     0.420830000000    -0.206768   
N52      N      0.047180000000     0.084520000000     0.147870000000    -0.20664    
N53      N      0.665140000000     0.619170000000     0.051380000000    -0.209102   
N54      N      0.935470000000     0.912490000000     0.050910000000    -0.211053   
N55      N      0.430830000000     0.406600000000     0.980340000000    -0.215165   
N56      N      0.147430000000     0.163940000000     0.074900000000    -0.20291    
N57      N      0.924890000000     0.022060000000     0.066720000000    -0.202562   
N58      N      0.642210000000     0.020210000000     0.053460000000    -0.210041   
N59      N      0.411490000000     0.023270000000     0.988440000000    -0.209387   
N60      N      0.141720000000     0.048360000000     0.978150000000    -0.20575    
N61      N      0.091010000000     0.962190000000     0.065290000000    -0.206583   
N62      N      0.075150000000     0.678040000000     0.052170000000    -0.204598   
N63      N      0.025910000000     0.413080000000     0.092310000000    -0.188297   
N64      N      0.071390000000     0.176980000000     0.996800000000    -0.186895   
O1       O      0.038850000000     0.111380000000     0.005140000000    -0.454438   
O2       O      0.974290000000     0.968310000000     0.021390000000    -0.446456   
O3       O      0.053380000000     0.074480000000     0.971530000000    -0.409765   
O4       O      0.978110000000     0.014700000000     0.081710000000    -0.404309   
O5       O      0.002990000000     0.017420000000     0.974160000000    -0.457611   
O6       O      0.980320000000     0.051170000000     0.038270000000    -0.414938   
O7       O      0.994930000000     0.960580000000     0.069340000000    -0.4739     
O8       O      0.102840000000     0.140860000000     0.000190000000    -0.387284   
O9       O      0.022380000000     0.081000000000     0.095220000000    -0.425688   
O10      O      0.075720000000     0.021620000000     0.983850000000    -0.44712    
O11      O      0.109630000000     0.103100000000     0.055900000000    -0.427309   
O12      O      0.071380000000     0.004190000000     0.081640000000    -0.424638   
O13      O      0.049810000000     0.975670000000     0.033650000000    -0.449343   
O14      O      0.081350000000     0.134190000000     0.063380000000    -0.437453   
O15      O      0.060750000000     0.058470000000     0.105380000000    -0.447456   
O16      O      0.115810000000     0.078680000000     0.004230000000    -0.432906   
O17      O      0.043090000000     0.042450000000     0.038120000000    -0.577865   
O18      O      0.052040000000     0.064360000000     0.469720000000    -0.435395   
O19      O      0.010070000000     0.099460000000     0.542660000000    -0.457254   
O20      O      0.937110000000     0.986120000000     0.501370000000    -0.410136   
O21      O      0.102370000000     0.112830000000     0.540280000000    -0.467137   
O22      O      0.967790000000     0.046260000000     0.505080000000    -0.455023   
O23      O      0.110500000000     0.077300000000     0.507090000000    -0.406388   
O24      O      0.053770000000     0.108680000000     0.580730000000    -0.440993   
O25      O      0.993850000000     0.017610000000     0.459540000000    -0.438268   
O26      O      0.066500000000     0.000790000000     0.535280000000    -0.425617   
O27      O      0.953370000000     0.989790000000     0.559130000000    -0.432601   
O28      O      0.022180000000     0.972180000000     0.485710000000    -0.461244   
O29      O      0.044380000000     0.037260000000     0.602630000000    -0.463347   
O30      O      0.995390000000     0.047140000000     0.595710000000    -0.455254   
O31      O      0.080180000000     0.016620000000     0.471960000000    -0.402803   
O32      O      0.102160000000     0.049070000000     0.566430000000    -0.457527   
O33      O      0.977240000000     0.957410000000     0.537640000000    -0.418535   
O34      O      0.028450000000     0.041600000000     0.532580000000    -0.556222   
O35      O      0.003380000000     0.460220000000     0.027720000000    -0.4166     
O36      O      0.030970000000     0.613650000000     0.058670000000    -0.444764   
O37      O      0.959340000000     0.494280000000     0.099190000000    -0.394136   
O38      O      0.063530000000     0.581500000000     0.007120000000    -0.4435     
O39      O      0.972590000000     0.552740000000     0.082950000000    -0.458546   
O40      O      0.051540000000     0.524100000000     0.997870000000    -0.426237   
O41      O      0.091050000000     0.630310000000     0.052700000000    -0.409941   
O42      O      0.969620000000     0.481830000000     0.043870000000    -0.419377   
O43      O      0.111170000000     0.541630000000     0.046280000000    -0.424413   
O44      O      0.016890000000     0.550330000000     0.134030000000    -0.4725     
O45      O      0.989110000000     0.443940000000     0.093210000000    -0.395275   
O46      O      0.106240000000     0.580560000000     0.093220000000    -0.434298   
O47      O      0.078800000000     0.610590000000     0.110980000000    -0.453595   
O48      O      0.051920000000     0.478500000000     0.082690000000    -0.416626   
O49      O      0.132190000000     0.602930000000     0.033980000000    -0.428065   
O50      O      0.035140000000     0.509500000000     0.124630000000    -0.412458   
O51      O      0.033390000000     0.545370000000     0.064790000000    -0.632049   
O52      O      0.993140000000     0.454420000000     0.548980000000    -0.438393   
O53      O      0.062340000000     0.638650000000     0.584100000000    -0.417511   
O54      O      0.964570000000     0.535840000000     0.590130000000    -0.476222   
O55      O      0.041070000000     0.555780000000     0.501370000000    -0.418799   
O56      O      0.001020000000     0.578630000000     0.555150000000    -0.421817   
O57      O      0.046100000000     0.504180000000     0.511730000000    -0.425626   
O58      O      0.064860000000     0.623380000000     0.533700000000    -0.428049   
O59      O      0.957940000000     0.480560000000     0.555810000000    -0.471678   
O60      O      0.099140000000     0.528790000000     0.570330000000    -0.468959   
O61      O      0.024590000000     0.580750000000     0.623450000000    -0.400688   
O62      O      0.988180000000     0.456630000000     0.607980000000    -0.453408   
O63      O      0.122150000000     0.612500000000     0.564470000000    -0.447416   
O64      O      0.091740000000     0.597240000000     0.609010000000    -0.432573   
O65      O      0.049330000000     0.481980000000     0.604800000000    -0.447506   
O66      O      0.110090000000     0.558180000000     0.524180000000    -0.409443   
O67      O      0.007160000000     0.521260000000     0.636620000000    -0.4655     
O68      O      0.037080000000     0.537180000000     0.571430000000    -0.568016   
O69      O      0.442660000000     0.013710000000     0.033540000000    -0.46482    
O70      O      0.514000000000     0.968640000000     0.997950000000    -0.436856   
O71      O      0.547290000000     0.090640000000     0.977410000000    -0.386319   
O72      O      0.494350000000     0.961850000000     0.091460000000    -0.481329   
O73      O      0.516050000000     0.029480000000     0.972890000000    -0.453257   
O74      O      0.455560000000     0.984380000000     0.083320000000    -0.485806   
O75      O      0.533660000000     0.959980000000     0.047470000000    -0.456934   
O76      O      0.477890000000     0.058730000000     0.000120000000    -0.415925   
O77      O      0.511430000000     0.053880000000     0.105610000000    -0.490981   
O78      O      0.595480000000     0.077680000000     0.002440000000    -0.414309   
O79      O      0.533880000000     0.127910000000     0.017950000000    -0.406959   
O80      O      0.596290000000     0.034700000000     0.067270000000    -0.465862   
O81      O      0.590090000000     0.011430000000     0.019830000000    -0.45228    
O82      O      0.496540000000     0.089210000000     0.056380000000    -0.496217   
O83      O      0.553200000000     0.034080000000     0.110260000000    -0.490806   
O84      O      0.581820000000     0.105070000000     0.040840000000    -0.432627   
O85      O      0.523840000000     0.028420000000     0.040500000000    -0.534155   
O86      O      0.441220000000     0.999030000000     0.545360000000    -0.439523   
O87      O      0.556760000000     0.977580000000     0.512810000000    -0.482086   
O88      O      0.525880000000     0.065310000000     0.477510000000    -0.436579   
O89      O      0.460940000000     0.950580000000     0.570460000000    -0.457363   
O90      O      0.536690000000     0.017540000000     0.474930000000    -0.477438   
O91      O      0.460530000000     0.987020000000     0.605680000000    -0.387735   
O92      O      0.501060000000     0.940550000000     0.533560000000    -0.453687   
O93      O      0.461820000000     0.042330000000     0.507090000000    -0.451067   
O94      O      0.529790000000     0.055560000000     0.602000000000    -0.414853   
O95      O      0.592410000000     0.082260000000     0.504830000000    -0.488816   
O96      O      0.505310000000     0.086980000000     0.561030000000    -0.485111   
O97      O      0.568310000000     0.985010000000     0.573810000000    -0.455025   
O98      O      0.600770000000     0.041760000000     0.551160000000    -0.479128   
O99      O      0.458450000000     0.048930000000     0.592090000000    -0.380112   
O100     O      0.528640000000     0.000870000000     0.611830000000    -0.432971   
O101     O      0.568500000000     0.107240000000     0.534260000000    -0.441111   
O102     O      0.520370000000     0.020220000000     0.542600000000    -0.536723   
O103     O      0.497060000000     0.439150000000     0.987190000000    -0.44877    
O104     O      0.575180000000     0.626410000000     0.038250000000    -0.41915    
O105     O      0.462760000000     0.525400000000     0.991320000000    -0.470816   
O106     O      0.544230000000     0.552220000000     0.943760000000    -0.430855   
O107     O      0.506600000000     0.577680000000     0.014710000000    -0.43541    
O108     O      0.546880000000     0.498430000000     0.948490000000    -0.405972   
O109     O      0.566890000000     0.615160000000     0.984640000000    -0.432442   
O110     O      0.470570000000     0.471610000000     0.973490000000    -0.461893   
O111     O      0.596230000000     0.520800000000     0.008940000000    -0.479573   
O112     O      0.533360000000     0.559880000000     0.070140000000    -0.436326   
O113     O      0.483090000000     0.454290000000     0.041120000000    -0.447018   
O114     O      0.625190000000     0.602230000000     0.005700000000    -0.463877   
O115     O      0.598600000000     0.576400000000     0.050590000000    -0.416472   
O116     O      0.544000000000     0.468850000000     0.041400000000    -0.442564   
O117     O      0.612530000000     0.550060000000     0.963290000000    -0.386948   
O118     O      0.475740000000     0.511060000000     0.056880000000    -0.465467   
O119     O      0.536210000000     0.527170000000     0.008960000000    -0.574401   
O120     O      0.472180000000     0.475030000000     0.466880000000    -0.430325   
O121     O      0.508080000000     0.589500000000     0.476910000000    -0.461587   
O122     O      0.470440000000     0.508010000000     0.558520000000    -0.412867   
O123     O      0.546680000000     0.557390000000     0.430150000000    -0.473992   
O124     O      0.468590000000     0.538950000000     0.514980000000    -0.473054   
O125     O      0.534370000000     0.498010000000     0.437820000000    -0.399398   
O126     O      0.566660000000     0.619300000000     0.462450000000    -0.463083   
O127     O      0.456130000000     0.456420000000     0.516220000000    -0.455685   
O128     O      0.576170000000     0.502830000000     0.499430000000    -0.422504   
O129     O      0.531650000000     0.566300000000     0.564700000000    -0.433475   
O130     O      0.524080000000     0.457170000000     0.531470000000    -0.436332   
O131     O      0.611730000000     0.600720000000     0.504110000000    -0.47275    
O132     O      0.574180000000     0.619190000000     0.523440000000    -0.445877   
O133     O      0.510870000000     0.438430000000     0.480020000000    -0.408773   
O134     O      0.601850000000     0.548370000000     0.463150000000    -0.479179   
O135     O      0.547530000000     0.521480000000     0.566870000000    -0.420195   
O136     O      0.532400000000     0.537980000000     0.498780000000    -0.564725   
S1       S      0.509620000000     0.442370000000     0.897900000000    -0.0369281  
S2       S      0.533850000000     0.608790000000     0.119030000000    -0.0226471  
S3       S      0.448100000000     0.601190000000     0.452220000000    -0.0290129  
S4       S      0.493160000000     0.130150000000     0.510710000000    -0.0802516  
S5       S      0.567870000000     0.986140000000     0.664190000000    -0.0404724  
S6       S      0.485450000000     0.082270000000     0.426970000000    -0.03599    
S7       S      0.600830000000     0.698260000000     0.065240000000    -0.0282982  
S8       S      0.580200000000     0.452800000000     0.097040000000    -0.0264114  
S9       S      0.969240000000     0.385850000000     0.516900000000    -0.0464396  
S10      S      0.405180000000     0.964180000000     0.653950000000    -0.0175321  
S11      S      0.974760000000     0.608190000000     0.502460000000    -0.0159054  
S12      S      0.160170000000     0.548750000000     0.617540000000    -0.0178846  
S13      S      0.050850000000     0.641380000000     0.666550000000    -0.0127955  
S14      S      0.056470000000     0.469860000000     0.172160000000    -0.0180244  
S15      S      0.902660000000     0.468680000000     0.999440000000    -0.0330335  
S16      S      0.176040000000     0.587650000000     0.123070000000    -0.0239224  
S17      S      0.929190000000     0.577480000000     0.118370000000    -0.0563352  
S18      S      0.208630000000     0.662710000000     0.037450000000    -0.0170319  
S19      S      0.594100000000     0.671940000000     0.572630000000    -0.0435987  
S20      S      0.165650000000     0.179140000000     0.566820000000    -0.0442757  
S21      S      0.671960000000     0.097990000000     0.583200000000    -0.0348402  
S22      S      0.068260000000     0.930340000000     0.550400000000    -0.0253298  
S23      S      0.140000000000     0.001900000000     0.459140000000    -0.0222178  
S24      S      0.094990000000     0.173140000000     0.619740000000    -0.0413275  
S25      S      0.070680000000     0.127900000000     0.919870000000    -0.0178882  
S26      S      0.083960000000     0.137820000000     0.439280000000    -0.018059   
S27      S      0.631870000000     0.622680000000     0.107680000000    -0.00762695 
S28      S      0.461990000000     0.358270000000     0.981870000000    -0.0435347  
S29      S      0.948320000000     0.097100000000     0.042850000000    -0.0513213  
S30      S      0.369370000000     0.950140000000     0.017290000000    -0.0256808  
S31      S      0.095130000000     0.970190000000     0.132940000000    -0.0410814  
S32      S      0.946220000000     0.362830000000     0.096750000000    -0.0233846  


