data_structure

_audit_creation_method RASPA-1.0
_audit_creation_date 2023-5-19
_audit_author_name 'Poobodin Mano'

_cell_length_a    29.3584
_cell_length_b    28.9849
_cell_length_c    30.895
_cell_angle_alpha 90
_cell_angle_beta  90
_cell_angle_gamma 90
_cell_volume      26290.1

_symmetry_cell_setting          triclinic
_symmetry_space_group_name_Hall 'P 1'
_symmetry_space_group_name_H-M  'P 1'
_symmetry_Int_Tables_number     1

_symmetry_equiv_pos_as_xyz 'x,y,z'

loop_
_atom_site_label
_atom_site_type_symbol
_atom_site_fract_x
_atom_site_fract_y
_atom_site_fract_z
_atom_site_charge
C1       C      0.443850000000     0.462760000000     0.440960000000     0.401201   
C2       C      0.109770000000     0.119370000000     0.441880000000     0.410505   
C3       C      0.449140000000     0.116180000000     0.444230000000     0.40233    
C4       C      0.109190000000     0.454960000000     0.438140000000     0.415891   
C5       C      0.106690000000     0.453540000000     0.054500000000     0.40512    
C6       C      0.456470000000     0.113590000000     0.066880000000     0.400214   
C7       C      0.456690000000     0.453150000000     0.060210000000     0.39729    
C8       C      0.112210000000     0.114680000000     0.057410000000     0.405748   
C9       C      0.361350000000     0.358870000000     0.185520000000     0.403046   
C10      C      0.206180000000     0.209310000000     0.185890000000     0.394401   
C11      C      0.365230000000     0.208440000000     0.195870000000     0.405782   
C12      C      0.204330000000     0.361800000000     0.182370000000     0.395399   
C13      C      0.199780000000     0.369290000000     0.303610000000     0.403765   
C14      C      0.360010000000     0.206940000000     0.310750000000     0.411237   
C15      C      0.349740000000     0.371820000000     0.313310000000     0.40937    
C16      C      0.201490000000     0.209070000000     0.309030000000     0.398966   
C17      C      0.142270000000     0.200580000000     0.139260000000     0.0352123  
C18      C      0.203320000000     0.148270000000     0.134060000000     0.00985057 
C19      C      0.119210000000     0.176810000000     0.106790000000     0.0410433  
C20      C      0.180950000000     0.124840000000     0.100270000000     0.135765   
C21      C      0.192760000000     0.145190000000     0.356860000000     0.0335134  
C22      C      0.142280000000     0.208030000000     0.361740000000     0.010757   
C23      C      0.170150000000     0.123550000000     0.391010000000     0.0427056  
C24      C      0.120110000000     0.187210000000     0.396980000000     0.139202   
C25      C      0.196350000000     0.423400000000     0.131900000000     0.0360399  
C26      C      0.140580000000     0.365170000000     0.134690000000     0.0101029  
C27      C      0.171490000000     0.445900000000     0.099760000000     0.0374708  
C28      C      0.115520000000     0.387310000000     0.102030000000     0.139197   
C29      C      0.394470000000     0.121100000000     0.115640000000     0.0352322  
C30      C      0.454790000000     0.174620000000     0.118390000000     0.00929531 
C31      C      0.372120000000     0.144910000000     0.148370000000     0.0408617  
C32      C      0.433090000000     0.198220000000     0.152220000000     0.13779    
C33      C      0.373720000000     0.431810000000     0.415070000000     0.03616    
C34      C      0.437640000000     0.436980000000     0.368800000000     0.0134343  
C35      C      0.349740000000     0.408050000000     0.382690000000     0.0451992  
C36      C      0.412150000000     0.417350000000     0.335450000000     0.146678   
C37      C      0.439600000000     0.181470000000     0.398480000000     0.0357681  
C38      C      0.391280000000     0.117240000000     0.390230000000     0.0103916  
C39      C      0.417840000000     0.203410000000     0.364110000000     0.0426966  
C40      C      0.370130000000     0.138360000000     0.354620000000     0.138482   
C41      C      0.191490000000     0.432420000000     0.352180000000     0.033969   
C42      C      0.140010000000     0.370090000000     0.354990000000     0.00967952 
C43      C      0.169390000000     0.452780000000     0.387190000000     0.0399494  
C44      C      0.118370000000     0.389570000000     0.390740000000     0.140941   
C45      C      0.424470000000     0.382730000000     0.085720000000     0.0420041  
C46      C      0.426900000000     0.448250000000     0.131130000000     0.0122519  
C47      C      0.399320000000     0.358920000000     0.117240000000     0.0499706  
C48      C      0.405950000000     0.422850000000     0.163990000000     0.145196   
C49      C      0.443850000000     0.462760000000     0.940960000000     0.401181   
C50      C      0.109770000000     0.119370000000     0.941880000000     0.410505   
C51      C      0.449140000000     0.116180000000     0.944230000000     0.402323   
C52      C      0.109190000000     0.454960000000     0.938140000000     0.415883   
C53      C      0.106690000000     0.453540000000     0.554500000000     0.405134   
C54      C      0.456470000000     0.113590000000     0.566880000000     0.400223   
C55      C      0.456690000000     0.453150000000     0.560210000000     0.397284   
C56      C      0.112210000000     0.114680000000     0.557410000000     0.40575    
C57      C      0.361350000000     0.358870000000     0.685520000000     0.403047   
C58      C      0.206180000000     0.209310000000     0.685890000000     0.394403   
C59      C      0.365230000000     0.208440000000     0.695870000000     0.405784   
C60      C      0.204330000000     0.361800000000     0.682380000000     0.395454   
C61      C      0.199780000000     0.369290000000     0.803610000000     0.403764   
C62      C      0.360010000000     0.206940000000     0.810750000000     0.411238   
C63      C      0.349740000000     0.371820000000     0.813310000000     0.409371   
C64      C      0.201490000000     0.209070000000     0.809030000000     0.398927   
C65      C      0.142270000000     0.200580000000     0.639260000000     0.0352086  
C66      C      0.203320000000     0.148270000000     0.634060000000     0.00985579 
C67      C      0.119210000000     0.176810000000     0.606780000000     0.0410711  
C68      C      0.180950000000     0.124840000000     0.600270000000     0.135768   
C69      C      0.192760000000     0.145190000000     0.856860000000     0.033508   
C70      C      0.142280000000     0.208030000000     0.861750000000     0.0107212  
C71      C      0.170150000000     0.123550000000     0.891010000000     0.042712   
C72      C      0.120110000000     0.187210000000     0.896980000000     0.139219   
C73      C      0.196350000000     0.423400000000     0.631900000000     0.0360343  
C74      C      0.140580000000     0.365170000000     0.634690000000     0.0100958  
C75      C      0.171490000000     0.445900000000     0.599760000000     0.037475   
C76      C      0.115520000000     0.387310000000     0.602030000000     0.139201   
C77      C      0.394470000000     0.121100000000     0.615640000000     0.0352341  
C78      C      0.454790000000     0.174620000000     0.618390000000     0.00929718 
C79      C      0.372120000000     0.144910000000     0.648370000000     0.0408626  
C80      C      0.433090000000     0.198220000000     0.652220000000     0.137791   
C81      C      0.373720000000     0.431810000000     0.915070000000     0.0361615  
C82      C      0.437640000000     0.436980000000     0.868800000000     0.0134336  
C83      C      0.349740000000     0.408050000000     0.882690000000     0.0452017  
C84      C      0.412150000000     0.417350000000     0.835450000000     0.146679   
C85      C      0.439600000000     0.181470000000     0.898480000000     0.0357701  
C86      C      0.391280000000     0.117240000000     0.890230000000     0.0103937  
C87      C      0.417840000000     0.203410000000     0.864110000000     0.0426981  
C88      C      0.370130000000     0.138360000000     0.854620000000     0.138483   
C89      C      0.191490000000     0.432420000000     0.852180000000     0.0339694  
C90      C      0.140010000000     0.370090000000     0.854990000000     0.00967965 
C91      C      0.169390000000     0.452780000000     0.887190000000     0.0399515  
C92      C      0.118370000000     0.389570000000     0.890740000000     0.140943   
C93      C      0.424470000000     0.382730000000     0.585720000000     0.0420051  
C94      C      0.426900000000     0.448250000000     0.631130000000     0.0122531  
C95      C      0.399320000000     0.358920000000     0.617240000000     0.0499726  
C96      C      0.405950000000     0.422850000000     0.663990000000     0.145196   
C97      C      0.443850000000     0.962760000000     0.440960000000     0.401201   
C98      C      0.109770000000     0.619370000000     0.441880000000     0.410515   
C99      C      0.449140000000     0.616180000000     0.444230000000     0.402337   
C100     C      0.109190000000     0.954970000000     0.438140000000     0.416043   
C101     C      0.106690000000     0.953540000000     0.054500000000     0.405198   
C102     C      0.456470000000     0.613590000000     0.066880000000     0.400099   
C103     C      0.456690000000     0.953150000000     0.060210000000     0.397279   
C104     C      0.112210000000     0.614680000000     0.057410000000     0.405623   
C105     C      0.361350000000     0.858860000000     0.185520000000     0.403041   
C106     C      0.206180000000     0.709310000000     0.185890000000     0.394421   
C107     C      0.365230000000     0.708440000000     0.195870000000     0.405673   
C108     C      0.204330000000     0.861800000000     0.182370000000     0.395415   
C109     C      0.199780000000     0.869290000000     0.303610000000     0.403784   
C110     C      0.360010000000     0.706940000000     0.310750000000     0.411174   
C111     C      0.349740000000     0.871820000000     0.313310000000     0.409384   
C112     C      0.201490000000     0.709070000000     0.309030000000     0.398983   
C113     C      0.142270000000     0.700580000000     0.139260000000     0.0352174  
C114     C      0.203320000000     0.648270000000     0.134060000000     0.0098577  
C115     C      0.119210000000     0.676810000000     0.106790000000     0.0410443  
C116     C      0.180950000000     0.624840000000     0.100270000000     0.135773   
C117     C      0.192760000000     0.645180000000     0.356860000000     0.0334233  
C118     C      0.142280000000     0.708030000000     0.361740000000     0.0107533  
C119     C      0.170150000000     0.623560000000     0.391010000000     0.0427949  
C120     C      0.120110000000     0.687210000000     0.396980000000     0.139211   
C121     C      0.196350000000     0.923400000000     0.131900000000     0.0360381  
C122     C      0.140580000000     0.865170000000     0.134690000000     0.0101057  
C123     C      0.171490000000     0.945900000000     0.099760000000     0.0374913  
C124     C      0.115520000000     0.887310000000     0.102030000000     0.139204   
C125     C      0.394470000000     0.621110000000     0.115640000000     0.0352683  
C126     C      0.454790000000     0.674620000000     0.118390000000     0.00930024 
C127     C      0.372120000000     0.644910000000     0.148370000000     0.0408587  
C128     C      0.433090000000     0.698220000000     0.152220000000     0.137786   
C129     C      0.373720000000     0.931810000000     0.415070000000     0.0361731  
C130     C      0.437640000000     0.936980000000     0.368800000000     0.0134452  
C131     C      0.349740000000     0.908050000000     0.382690000000     0.0452105  
C132     C      0.412150000000     0.917350000000     0.335450000000     0.146689   
C133     C      0.439600000000     0.681470000000     0.398480000000     0.0357892  
C134     C      0.391280000000     0.617240000000     0.390230000000     0.0103865  
C135     C      0.417840000000     0.703410000000     0.364110000000     0.0426582  
C136     C      0.370130000000     0.638360000000     0.354620000000     0.138521   
C137     C      0.191490000000     0.932430000000     0.352180000000     0.0339561  
C138     C      0.140010000000     0.870090000000     0.354990000000     0.00968232 
C139     C      0.169390000000     0.952790000000     0.387190000000     0.0399208  
C140     C      0.118370000000     0.889570000000     0.390740000000     0.140953   
C141     C      0.424470000000     0.882720000000     0.085720000000     0.041965   
C142     C      0.426900000000     0.948250000000     0.131130000000     0.012239   
C143     C      0.399320000000     0.858920000000     0.117240000000     0.049952   
C144     C      0.405950000000     0.922860000000     0.163990000000     0.145227   
C145     C      0.443850000000     0.962760000000     0.940960000000     0.401181   
C146     C      0.109770000000     0.619370000000     0.941880000000     0.410516   
C147     C      0.449140000000     0.616180000000     0.944230000000     0.402329   
C148     C      0.109190000000     0.954970000000     0.938140000000     0.416035   
C149     C      0.106690000000     0.953540000000     0.554500000000     0.405211   
C150     C      0.456470000000     0.613590000000     0.566880000000     0.400108   
C151     C      0.456690000000     0.953150000000     0.560210000000     0.397273   
C152     C      0.112210000000     0.614680000000     0.557410000000     0.405626   
C153     C      0.361350000000     0.858860000000     0.685520000000     0.403042   
C154     C      0.206180000000     0.709310000000     0.685890000000     0.394424   
C155     C      0.365230000000     0.708440000000     0.695870000000     0.405675   
C156     C      0.204330000000     0.861800000000     0.682380000000     0.395471   
C157     C      0.199780000000     0.869290000000     0.803610000000     0.403783   
C158     C      0.360010000000     0.706940000000     0.810750000000     0.411175   
C159     C      0.349740000000     0.871820000000     0.813310000000     0.409385   
C160     C      0.201490000000     0.709070000000     0.809030000000     0.398944   
C161     C      0.142270000000     0.700580000000     0.639260000000     0.0352137  
C162     C      0.203320000000     0.648270000000     0.634060000000     0.00986292 
C163     C      0.119210000000     0.676810000000     0.606780000000     0.0410721  
C164     C      0.180950000000     0.624840000000     0.600270000000     0.135777   
C165     C      0.192760000000     0.645180000000     0.856860000000     0.0334179  
C166     C      0.142280000000     0.708030000000     0.861750000000     0.0107175  
C167     C      0.170150000000     0.623560000000     0.891010000000     0.0428012  
C168     C      0.120110000000     0.687210000000     0.896980000000     0.139228   
C169     C      0.196350000000     0.923400000000     0.631900000000     0.0360324  
C170     C      0.140580000000     0.865170000000     0.634690000000     0.0100987  
C171     C      0.171490000000     0.945900000000     0.599760000000     0.0374955  
C172     C      0.115520000000     0.887310000000     0.602030000000     0.139208   
C173     C      0.394470000000     0.621110000000     0.615640000000     0.0352702  
C174     C      0.454790000000     0.674620000000     0.618390000000     0.0093021  
C175     C      0.372120000000     0.644910000000     0.648370000000     0.0408597  
C176     C      0.433090000000     0.698220000000     0.652220000000     0.137787   
C177     C      0.373720000000     0.931810000000     0.915070000000     0.0361747  
C178     C      0.437640000000     0.936980000000     0.868800000000     0.0134445  
C179     C      0.349740000000     0.908050000000     0.882690000000     0.045213   
C180     C      0.412150000000     0.917350000000     0.835450000000     0.146689   
C181     C      0.439600000000     0.681470000000     0.898480000000     0.0357912  
C182     C      0.391280000000     0.617240000000     0.890230000000     0.0103885  
C183     C      0.417840000000     0.703410000000     0.864110000000     0.0426596  
C184     C      0.370130000000     0.638360000000     0.854620000000     0.138522   
C185     C      0.191490000000     0.932430000000     0.852180000000     0.0339565  
C186     C      0.140010000000     0.870090000000     0.854990000000     0.00968245 
C187     C      0.169390000000     0.952790000000     0.887190000000     0.0399228  
C188     C      0.118370000000     0.889570000000     0.890740000000     0.140955   
C189     C      0.424470000000     0.882720000000     0.585720000000     0.041966   
C190     C      0.426900000000     0.948250000000     0.631130000000     0.0122403  
C191     C      0.399320000000     0.858920000000     0.617240000000     0.049954   
C192     C      0.405950000000     0.922860000000     0.663990000000     0.145227   
C193     C      0.943850000000     0.462760000000     0.440960000000     0.40119    
C194     C      0.609770000000     0.119370000000     0.441880000000     0.410622   
C195     C      0.949140000000     0.116180000000     0.444230000000     0.402322   
C196     C      0.609190000000     0.454960000000     0.438140000000     0.415881   
C197     C      0.606690000000     0.453540000000     0.054500000000     0.405109   
C198     C      0.956470000000     0.113590000000     0.066880000000     0.400074   
C199     C      0.956690000000     0.453150000000     0.060210000000     0.397288   
C200     C      0.612210000000     0.114680000000     0.057410000000     0.405609   
C201     C      0.861350000000     0.358870000000     0.185520000000     0.403047   
C202     C      0.706180000000     0.209310000000     0.185890000000     0.394401   
C203     C      0.865230000000     0.208440000000     0.195870000000     0.405783   
C204     C      0.704330000000     0.361800000000     0.182370000000     0.395398   
C205     C      0.699780000000     0.369290000000     0.303610000000     0.40364    
C206     C      0.860010000000     0.206940000000     0.310750000000     0.411239   
C207     C      0.849740000000     0.371820000000     0.313310000000     0.409366   
C208     C      0.701490000000     0.209070000000     0.309030000000     0.399012   
C209     C      0.642270000000     0.200580000000     0.139260000000     0.035224   
C210     C      0.703320000000     0.148270000000     0.134060000000     0.00985538 
C211     C      0.619210000000     0.176810000000     0.106790000000     0.0410418  
C212     C      0.680950000000     0.124840000000     0.100270000000     0.135763   
C213     C      0.692760000000     0.145190000000     0.356860000000     0.0335194  
C214     C      0.642280000000     0.208030000000     0.361740000000     0.0107591  
C215     C      0.670150000000     0.123550000000     0.391010000000     0.0427109  
C216     C      0.620110000000     0.187210000000     0.396980000000     0.139221   
C217     C      0.696350000000     0.423400000000     0.131900000000     0.036042   
C218     C      0.640580000000     0.365170000000     0.134690000000     0.0101042  
C219     C      0.671490000000     0.445900000000     0.099760000000     0.0374735  
C220     C      0.615520000000     0.387310000000     0.102030000000     0.13921    
C221     C      0.894470000000     0.121100000000     0.115640000000     0.0352313  
C222     C      0.954790000000     0.174620000000     0.118390000000     0.00929109 
C223     C      0.872120000000     0.144910000000     0.148370000000     0.0408664  
C224     C      0.933090000000     0.198220000000     0.152220000000     0.137807   
C225     C      0.873720000000     0.431810000000     0.415070000000     0.0361622  
C226     C      0.937640000000     0.436980000000     0.368800000000     0.0134417  
C227     C      0.849740000000     0.408050000000     0.382690000000     0.0452013  
C228     C      0.912150000000     0.417350000000     0.335450000000     0.146692   
C229     C      0.939600000000     0.181470000000     0.398480000000     0.0357776  
C230     C      0.891280000000     0.117240000000     0.390230000000     0.0103968  
C231     C      0.917840000000     0.203410000000     0.364110000000     0.0427072  
C232     C      0.870130000000     0.138360000000     0.354620000000     0.138485   
C233     C      0.691490000000     0.432420000000     0.352180000000     0.033964   
C234     C      0.640010000000     0.370090000000     0.354990000000     0.00967796 
C235     C      0.669390000000     0.452780000000     0.387190000000     0.0399561  
C236     C      0.618370000000     0.389570000000     0.390740000000     0.140956   
C237     C      0.924470000000     0.382730000000     0.085720000000     0.0420164  
C238     C      0.926900000000     0.448250000000     0.131130000000     0.0122607  
C239     C      0.899320000000     0.358920000000     0.117240000000     0.049977   
C240     C      0.905950000000     0.422850000000     0.163990000000     0.145203   
C241     C      0.943850000000     0.462760000000     0.940960000000     0.40117    
C242     C      0.609770000000     0.119370000000     0.941880000000     0.410622   
C243     C      0.949140000000     0.116180000000     0.944230000000     0.402315   
C244     C      0.609190000000     0.454960000000     0.938140000000     0.415872   
C245     C      0.606690000000     0.453540000000     0.554500000000     0.405123   
C246     C      0.956470000000     0.113590000000     0.566880000000     0.400083   
C247     C      0.956690000000     0.453150000000     0.560210000000     0.397283   
C248     C      0.612210000000     0.114680000000     0.557410000000     0.405611   
C249     C      0.861350000000     0.358870000000     0.685520000000     0.403047   
C250     C      0.706180000000     0.209310000000     0.685890000000     0.394403   
C251     C      0.865230000000     0.208440000000     0.695870000000     0.405784   
C252     C      0.704330000000     0.361800000000     0.682380000000     0.395453   
C253     C      0.699780000000     0.369290000000     0.803610000000     0.403639   
C254     C      0.860010000000     0.206940000000     0.810750000000     0.41124    
C255     C      0.849740000000     0.371820000000     0.813310000000     0.409367   
C256     C      0.701490000000     0.209070000000     0.809030000000     0.398974   
C257     C      0.642270000000     0.200580000000     0.639260000000     0.0352204  
C258     C      0.703320000000     0.148270000000     0.634060000000     0.0098606  
C259     C      0.619210000000     0.176810000000     0.606780000000     0.0410696  
C260     C      0.680950000000     0.124840000000     0.600270000000     0.135767   
C261     C      0.692760000000     0.145190000000     0.856860000000     0.033514   
C262     C      0.642280000000     0.208030000000     0.861750000000     0.0107233  
C263     C      0.670150000000     0.123550000000     0.891010000000     0.0427173  
C264     C      0.620110000000     0.187210000000     0.896980000000     0.139238   
C265     C      0.696350000000     0.423400000000     0.631900000000     0.0360364  
C266     C      0.640580000000     0.365170000000     0.634690000000     0.0100972  
C267     C      0.671490000000     0.445900000000     0.599760000000     0.0374777  
C268     C      0.615520000000     0.387310000000     0.602030000000     0.139214   
C269     C      0.894470000000     0.121100000000     0.615640000000     0.0352331  
C270     C      0.954790000000     0.174620000000     0.618390000000     0.00929296 
C271     C      0.872120000000     0.144910000000     0.648370000000     0.0408674  
C272     C      0.933090000000     0.198220000000     0.652220000000     0.137807   
C273     C      0.873720000000     0.431810000000     0.915070000000     0.0361638  
C274     C      0.937640000000     0.436980000000     0.868800000000     0.013441   
C275     C      0.849740000000     0.408050000000     0.882690000000     0.0452038  
C276     C      0.912150000000     0.417350000000     0.835450000000     0.146692   
C277     C      0.939600000000     0.181470000000     0.898480000000     0.0357796  
C278     C      0.891280000000     0.117240000000     0.890230000000     0.0103988  
C279     C      0.917840000000     0.203410000000     0.864110000000     0.0427086  
C280     C      0.870130000000     0.138360000000     0.854620000000     0.138486   
C281     C      0.691490000000     0.432420000000     0.852180000000     0.0339644  
C282     C      0.640010000000     0.370090000000     0.854990000000     0.00967809 
C283     C      0.669390000000     0.452780000000     0.887190000000     0.0399582  
C284     C      0.618370000000     0.389570000000     0.890740000000     0.140958   
C285     C      0.924470000000     0.382730000000     0.585720000000     0.0420174  
C286     C      0.926900000000     0.448250000000     0.631130000000     0.012262   
C287     C      0.899320000000     0.358920000000     0.617240000000     0.0499789  
C288     C      0.905950000000     0.422850000000     0.663990000000     0.145203   
C289     C      0.943850000000     0.962760000000     0.440960000000     0.40119    
C290     C      0.609770000000     0.619370000000     0.441880000000     0.410632   
C291     C      0.949140000000     0.616180000000     0.444230000000     0.402329   
C292     C      0.609190000000     0.954970000000     0.438140000000     0.416032   
C293     C      0.606690000000     0.953540000000     0.054500000000     0.405187   
C294     C      0.956470000000     0.613590000000     0.066880000000     0.399959   
C295     C      0.956690000000     0.953150000000     0.060210000000     0.397277   
C296     C      0.612210000000     0.614680000000     0.057410000000     0.405485   
C297     C      0.861350000000     0.858860000000     0.185520000000     0.403042   
C298     C      0.706180000000     0.709310000000     0.185890000000     0.394422   
C299     C      0.865230000000     0.708440000000     0.195870000000     0.405674   
C300     C      0.704330000000     0.861800000000     0.182370000000     0.395415   
C301     C      0.699780000000     0.869290000000     0.303610000000     0.403659   
C302     C      0.860010000000     0.706940000000     0.310750000000     0.411175   
C303     C      0.849740000000     0.871820000000     0.313310000000     0.409381   
C304     C      0.701490000000     0.709070000000     0.309030000000     0.39903    
C305     C      0.642270000000     0.700580000000     0.139260000000     0.0352292  
C306     C      0.703320000000     0.648270000000     0.134060000000     0.00986251 
C307     C      0.619210000000     0.676810000000     0.106790000000     0.0410428  
C308     C      0.680950000000     0.624840000000     0.100270000000     0.135772   
C309     C      0.692760000000     0.645180000000     0.356860000000     0.0334294  
C310     C      0.642280000000     0.708030000000     0.361740000000     0.0107555  
C311     C      0.670150000000     0.623560000000     0.391010000000     0.0428002  
C312     C      0.620110000000     0.687210000000     0.396980000000     0.13923    
C313     C      0.696350000000     0.923400000000     0.131900000000     0.0360402  
C314     C      0.640580000000     0.865170000000     0.134690000000     0.0101071  
C315     C      0.671490000000     0.945900000000     0.099760000000     0.037494   
C316     C      0.615520000000     0.887310000000     0.102030000000     0.139217   
C317     C      0.894470000000     0.621110000000     0.115640000000     0.0352674  
C318     C      0.954790000000     0.674620000000     0.118390000000     0.00929602 
C319     C      0.872120000000     0.644910000000     0.148370000000     0.0408635  
C320     C      0.933090000000     0.698220000000     0.152220000000     0.137803   
C321     C      0.873720000000     0.931810000000     0.415070000000     0.0361754  
C322     C      0.937640000000     0.936980000000     0.368800000000     0.0134526  
C323     C      0.849740000000     0.908050000000     0.382690000000     0.0452126  
C324     C      0.912150000000     0.917350000000     0.335450000000     0.146702   
C325     C      0.939600000000     0.681470000000     0.398480000000     0.0357987  
C326     C      0.891280000000     0.617240000000     0.390230000000     0.0103916  
C327     C      0.917840000000     0.703410000000     0.364110000000     0.0426687  
C328     C      0.870130000000     0.638360000000     0.354620000000     0.138524   
C329     C      0.691490000000     0.932430000000     0.352180000000     0.0339511  
C330     C      0.640010000000     0.870090000000     0.354990000000     0.00968075 
C331     C      0.669390000000     0.952790000000     0.387190000000     0.0399275  
C332     C      0.618370000000     0.889570000000     0.390740000000     0.140968   
C333     C      0.924470000000     0.882720000000     0.085720000000     0.0419773  
C334     C      0.926900000000     0.948250000000     0.131130000000     0.0122478  
C335     C      0.899320000000     0.858920000000     0.117240000000     0.0499583  
C336     C      0.905950000000     0.922860000000     0.163990000000     0.145234   
C337     C      0.943850000000     0.962760000000     0.940960000000     0.40117    
C338     C      0.609770000000     0.619370000000     0.941880000000     0.410633   
C339     C      0.949140000000     0.616180000000     0.944230000000     0.402321   
C340     C      0.609190000000     0.954970000000     0.938140000000     0.416024   
C341     C      0.606690000000     0.953540000000     0.554500000000     0.405201   
C342     C      0.956470000000     0.613590000000     0.566880000000     0.399968   
C343     C      0.956690000000     0.953150000000     0.560210000000     0.397271   
C344     C      0.612210000000     0.614680000000     0.557410000000     0.405487   
C345     C      0.861350000000     0.858860000000     0.685520000000     0.403043   
C346     C      0.706180000000     0.709310000000     0.685890000000     0.394424   
C347     C      0.865230000000     0.708440000000     0.695870000000     0.405675   
C348     C      0.704330000000     0.861800000000     0.682380000000     0.39547    
C349     C      0.699780000000     0.869290000000     0.803610000000     0.403658   
C350     C      0.860010000000     0.706940000000     0.810750000000     0.411177   
C351     C      0.849740000000     0.871820000000     0.813310000000     0.409381   
C352     C      0.701490000000     0.709070000000     0.809030000000     0.398991   
C353     C      0.642270000000     0.700580000000     0.639260000000     0.0352255  
C354     C      0.703320000000     0.648270000000     0.634060000000     0.00986773 
C355     C      0.619210000000     0.676810000000     0.606780000000     0.0410706  
C356     C      0.680950000000     0.624840000000     0.600270000000     0.135775   
C357     C      0.692760000000     0.645180000000     0.856860000000     0.033424   
C358     C      0.642280000000     0.708030000000     0.861750000000     0.0107197  
C359     C      0.670150000000     0.623560000000     0.891010000000     0.0428065  
C360     C      0.620110000000     0.687210000000     0.896980000000     0.139247   
C361     C      0.696350000000     0.923400000000     0.631900000000     0.0360346  
C362     C      0.640580000000     0.865170000000     0.634690000000     0.0101001  
C363     C      0.671490000000     0.945900000000     0.599760000000     0.0374982  
C364     C      0.615520000000     0.887310000000     0.602030000000     0.139221   
C365     C      0.894470000000     0.621110000000     0.615640000000     0.0352693  
C366     C      0.954790000000     0.674620000000     0.618390000000     0.00929788 
C367     C      0.872120000000     0.644910000000     0.648370000000     0.0408644  
C368     C      0.933090000000     0.698220000000     0.652220000000     0.137804   
C369     C      0.873720000000     0.931810000000     0.915070000000     0.036177   
C370     C      0.937640000000     0.936980000000     0.868800000000     0.0134519  
C371     C      0.849740000000     0.908050000000     0.882690000000     0.0452151  
C372     C      0.912150000000     0.917350000000     0.835450000000     0.146703   
C373     C      0.939600000000     0.681470000000     0.898480000000     0.0358007  
C374     C      0.891280000000     0.617240000000     0.890230000000     0.0103936  
C375     C      0.917840000000     0.703410000000     0.864110000000     0.0426701  
C376     C      0.870130000000     0.638360000000     0.854620000000     0.138525   
C377     C      0.691490000000     0.932430000000     0.852180000000     0.0339515  
C378     C      0.640010000000     0.870090000000     0.854990000000     0.00968088 
C379     C      0.669390000000     0.952790000000     0.887190000000     0.0399295  
C380     C      0.618370000000     0.889570000000     0.890740000000     0.14097    
C381     C      0.924470000000     0.882720000000     0.585720000000     0.0419783  
C382     C      0.926900000000     0.948250000000     0.631130000000     0.0122491  
C383     C      0.899320000000     0.858920000000     0.617240000000     0.0499603  
C384     C      0.905950000000     0.922860000000     0.663990000000     0.145234   
Co1      Co     0.027870000000     0.467770000000     0.493920000000     0.855155   
Co2      Co     0.530190000000     0.104670000000     0.000660000000     0.857271   
Co3      Co     0.462580000000     0.535930000000     0.504330000000     0.842115   
Co4      Co     0.096080000000     0.535620000000     0.997030000000     0.849659   
Co5      Co     0.280600000000     0.356550000000     0.246970000000     0.834042   
Co6      Co     0.281770000000     0.220380000000     0.250440000000     0.842517   
Co7      Co     0.348780000000     0.289390000000     0.253050000000     0.851806   
Co8      Co     0.214490000000     0.287240000000     0.247780000000     0.856136   
Co9      Co     0.027870000000     0.467770000000     0.993930000000     0.855223   
Co10     Co     0.530190000000     0.104670000000     0.500660000000     0.857357   
Co11     Co     0.462580000000     0.535930000000     0.004330000000     0.842024   
Co12     Co     0.096080000000     0.535620000000     0.497030000000     0.84959    
Co13     Co     0.280600000000     0.356550000000     0.746970000000     0.834045   
Co14     Co     0.281770000000     0.220380000000     0.750440000000     0.842557   
Co15     Co     0.348780000000     0.289390000000     0.753050000000     0.851803   
Co16     Co     0.214490000000     0.287240000000     0.747780000000     0.856137   
Co17     Co     0.027870000000     0.967770000000     0.493920000000     0.8554     
Co18     Co     0.530190000000     0.604670000000     0.000660000000     0.857221   
Co19     Co     0.462580000000     0.035930000000     0.504330000000     0.84181    
Co20     Co     0.096080000000     0.035620000000     0.997030000000     0.84936    
Co21     Co     0.280600000000     0.856560000000     0.246970000000     0.834106   
Co22     Co     0.281770000000     0.720370000000     0.250440000000     0.842628   
Co23     Co     0.348780000000     0.789390000000     0.253050000000     0.851884   
Co24     Co     0.214490000000     0.787240000000     0.247780000000     0.85617    
Co25     Co     0.027870000000     0.967770000000     0.993930000000     0.855468   
Co26     Co     0.530190000000     0.604670000000     0.500660000000     0.857307   
Co27     Co     0.462580000000     0.035930000000     0.004330000000     0.841719   
Co28     Co     0.096080000000     0.035620000000     0.497030000000     0.84929    
Co29     Co     0.280600000000     0.856560000000     0.746970000000     0.834109   
Co30     Co     0.281770000000     0.720370000000     0.750440000000     0.842669   
Co31     Co     0.348780000000     0.789390000000     0.753050000000     0.851881   
Co32     Co     0.214490000000     0.787240000000     0.747780000000     0.856172   
Co33     Co     0.527870000000     0.467770000000     0.493920000000     0.855388   
Co34     Co     0.030190000000     0.104670000000     0.000660000000     0.857043   
Co35     Co     0.962580000000     0.535930000000     0.504330000000     0.842267   
Co36     Co     0.596070000000     0.535620000000     0.997030000000     0.849535   
Co37     Co     0.780600000000     0.356550000000     0.246970000000     0.834058   
Co38     Co     0.781770000000     0.220380000000     0.250440000000     0.84249    
Co39     Co     0.848780000000     0.289390000000     0.253050000000     0.851807   
Co40     Co     0.714490000000     0.287240000000     0.247780000000     0.856096   
Co41     Co     0.527870000000     0.467770000000     0.993930000000     0.855456   
Co42     Co     0.030190000000     0.104670000000     0.500660000000     0.857129   
Co43     Co     0.962580000000     0.535930000000     0.004330000000     0.842176   
Co44     Co     0.596070000000     0.535620000000     0.497030000000     0.849465   
Co45     Co     0.780600000000     0.356550000000     0.746970000000     0.834061   
Co46     Co     0.781770000000     0.220380000000     0.750440000000     0.84253    
Co47     Co     0.848780000000     0.289390000000     0.753050000000     0.851804   
Co48     Co     0.714490000000     0.287240000000     0.747780000000     0.856097   
Co49     Co     0.527870000000     0.967770000000     0.493920000000     0.855633   
Co50     Co     0.030190000000     0.604670000000     0.000660000000     0.856993   
Co51     Co     0.962580000000     0.035930000000     0.504330000000     0.841961   
Co52     Co     0.596070000000     0.035620000000     0.997030000000     0.849236   
Co53     Co     0.780600000000     0.856560000000     0.246970000000     0.834122   
Co54     Co     0.781770000000     0.720370000000     0.250440000000     0.842601   
Co55     Co     0.848780000000     0.789390000000     0.253050000000     0.851885   
Co56     Co     0.714490000000     0.787240000000     0.247780000000     0.85613    
Co57     Co     0.527870000000     0.967770000000     0.993930000000     0.8557     
Co58     Co     0.030190000000     0.604670000000     0.500660000000     0.857079   
Co59     Co     0.962580000000     0.035930000000     0.004330000000     0.84187    
Co60     Co     0.596070000000     0.035620000000     0.497030000000     0.849166   
Co61     Co     0.780600000000     0.856560000000     0.746970000000     0.834125   
Co62     Co     0.781770000000     0.720370000000     0.750440000000     0.842641   
Co63     Co     0.848780000000     0.789390000000     0.753050000000     0.851882   
Co64     Co     0.714490000000     0.787240000000     0.747780000000     0.856132   
H1       H      0.085720000000     0.189540000000     0.097970000000     0.0581355  
H2       H      0.125590000000     0.230440000000     0.153280000000     0.0582539  
H3       H      0.237120000000     0.136780000000     0.143290000000     0.0705297  
H4       H      0.182400000000     0.089760000000     0.400590000000     0.0538078  
H5       H      0.221410000000     0.127370000000     0.342350000000     0.0640875  
H6       H      0.131070000000     0.242120000000     0.351880000000     0.0749508  
H7       H      0.185650000000     0.477760000000     0.087310000000     0.0664046  
H8       H      0.228050000000     0.438990000000     0.142440000000     0.0567014  
H9       H      0.127360000000     0.332940000000     0.147400000000     0.0745499  
H10      H      0.339250000000     0.131630000000     0.158430000000     0.0569663  
H11      H      0.377900000000     0.090720000000     0.102530000000     0.0571053  
H12      H      0.487970000000     0.186770000000     0.107920000000     0.0723257  
H13      H      0.315450000000     0.396050000000     0.389330000000     0.0420545  
H14      H      0.357180000000     0.437930000000     0.445930000000     0.0476855  
H15      H      0.470970000000     0.451110000000     0.361300000000     0.0688186  
H16      H      0.429380000000     0.237850000000     0.355850000000     0.0602517  
H17      H      0.467050000000     0.199770000000     0.414480000000     0.0675409  
H18      H      0.380890000000     0.082490000000     0.398780000000     0.073686   
H19      H      0.182070000000     0.485950000000     0.398130000000     0.0513728  
H20      H      0.220570000000     0.450200000000     0.338380000000     0.056481   
H21      H      0.127990000000     0.336710000000     0.343920000000     0.0764324  
H22      H      0.388150000000     0.323960000000     0.110590000000     0.0462564  
H23      H      0.432240000000     0.365380000000     0.055510000000     0.0553814  
H24      H      0.440490000000     0.482120000000     0.138820000000     0.0638506  
H25      H      0.085720000000     0.189540000000     0.597970000000     0.0581267  
H26      H      0.125590000000     0.230440000000     0.653280000000     0.0582562  
H27      H      0.237120000000     0.136780000000     0.643300000000     0.0705323  
H28      H      0.182400000000     0.089760000000     0.900590000000     0.0538098  
H29      H      0.221410000000     0.127370000000     0.842350000000     0.0640865  
H30      H      0.131070000000     0.242120000000     0.851880000000     0.0749644  
H31      H      0.185650000000     0.477760000000     0.587310000000     0.0664065  
H32      H      0.228050000000     0.438990000000     0.642440000000     0.0567063  
H33      H      0.127360000000     0.332940000000     0.647400000000     0.074553   
H34      H      0.339250000000     0.131630000000     0.658430000000     0.0569666  
H35      H      0.377900000000     0.090720000000     0.602530000000     0.0571077  
H36      H      0.487970000000     0.186770000000     0.607920000000     0.0723274  
H37      H      0.315450000000     0.396050000000     0.889330000000     0.0420582  
H38      H      0.357180000000     0.437930000000     0.945930000000     0.0476957  
H39      H      0.470970000000     0.451110000000     0.861300000000     0.0688187  
H40      H      0.429380000000     0.237850000000     0.855850000000     0.0602529  
H41      H      0.467050000000     0.199770000000     0.914480000000     0.0675449  
H42      H      0.380890000000     0.082490000000     0.898780000000     0.0736884  
H43      H      0.182070000000     0.485950000000     0.898130000000     0.0513757  
H44      H      0.220570000000     0.450200000000     0.838380000000     0.0564815  
H45      H      0.127990000000     0.336710000000     0.843920000000     0.0764322  
H46      H      0.388150000000     0.323960000000     0.610590000000     0.0462595  
H47      H      0.432240000000     0.365380000000     0.555510000000     0.0553877  
H48      H      0.440490000000     0.482120000000     0.638820000000     0.0638515  
H49      H      0.085720000000     0.689540000000     0.097970000000     0.0581389  
H50      H      0.125590000000     0.730440000000     0.153280000000     0.0582543  
H51      H      0.237120000000     0.636780000000     0.143290000000     0.0705376  
H52      H      0.182400000000     0.589760000000     0.400590000000     0.053824   
H53      H      0.221410000000     0.627370000000     0.342350000000     0.0641291  
H54      H      0.131070000000     0.742120000000     0.351880000000     0.0749525  
H55      H      0.185650000000     0.977760000000     0.087310000000     0.0664478  
H56      H      0.228050000000     0.938980000000     0.142440000000     0.0567306  
H57      H      0.127360000000     0.832940000000     0.147400000000     0.0745501  
H58      H      0.339250000000     0.631620000000     0.158430000000     0.0569803  
H59      H      0.377900000000     0.590720000000     0.102530000000     0.0571294  
H60      H      0.487970000000     0.686770000000     0.107920000000     0.0723289  
H61      H      0.315450000000     0.896050000000     0.389330000000     0.0420614  
H62      H      0.357180000000     0.937930000000     0.445930000000     0.0477031  
H63      H      0.470970000000     0.951110000000     0.361300000000     0.0688412  
H64      H      0.429380000000     0.737850000000     0.355850000000     0.0602591  
H65      H      0.467050000000     0.699770000000     0.414480000000     0.0675361  
H66      H      0.380890000000     0.582490000000     0.398780000000     0.0737226  
H67      H      0.182070000000     0.985940000000     0.398130000000     0.0514232  
H68      H      0.220570000000     0.950200000000     0.338380000000     0.0565169  
H69      H      0.127990000000     0.836710000000     0.343920000000     0.0764329  
H70      H      0.388150000000     0.823960000000     0.110590000000     0.0462589  
H71      H      0.432240000000     0.865380000000     0.055510000000     0.0553945  
H72      H      0.440490000000     0.982120000000     0.138820000000     0.0638932  
H73      H      0.085720000000     0.689540000000     0.597970000000     0.0581301  
H74      H      0.125590000000     0.730440000000     0.653280000000     0.0582565  
H75      H      0.237120000000     0.636780000000     0.643300000000     0.0705402  
H76      H      0.182400000000     0.589760000000     0.900590000000     0.053826   
H77      H      0.221410000000     0.627370000000     0.842350000000     0.0641281  
H78      H      0.131070000000     0.742120000000     0.851880000000     0.0749661  
H79      H      0.185650000000     0.977760000000     0.587310000000     0.0664497  
H80      H      0.228050000000     0.938980000000     0.642440000000     0.0567354  
H81      H      0.127360000000     0.832940000000     0.647400000000     0.0745532  
H82      H      0.339250000000     0.631620000000     0.658430000000     0.0569807  
H83      H      0.377900000000     0.590720000000     0.602530000000     0.0571318  
H84      H      0.487970000000     0.686770000000     0.607920000000     0.0723305  
H85      H      0.315450000000     0.896050000000     0.889330000000     0.0420651  
H86      H      0.357180000000     0.937930000000     0.945930000000     0.0477133  
H87      H      0.470970000000     0.951110000000     0.861300000000     0.0688413  
H88      H      0.429380000000     0.737850000000     0.855850000000     0.0602603  
H89      H      0.467050000000     0.699770000000     0.914480000000     0.0675402  
H90      H      0.380890000000     0.582490000000     0.898780000000     0.073725   
H91      H      0.182070000000     0.985940000000     0.898130000000     0.051426   
H92      H      0.220570000000     0.950200000000     0.838380000000     0.0565173  
H93      H      0.127990000000     0.836710000000     0.843920000000     0.0764327  
H94      H      0.388150000000     0.823960000000     0.610590000000     0.046262   
H95      H      0.432240000000     0.865380000000     0.555510000000     0.0554007  
H96      H      0.440490000000     0.982120000000     0.638820000000     0.0638941  
H97      H      0.585720000000     0.189540000000     0.097970000000     0.0581692  
H98      H      0.625590000000     0.230440000000     0.153280000000     0.0582695  
H99      H      0.737120000000     0.136780000000     0.143290000000     0.0705292  
H100     H      0.682400000000     0.089760000000     0.400590000000     0.0538079  
H101     H      0.721410000000     0.127370000000     0.342350000000     0.0640897  
H102     H      0.631070000000     0.242120000000     0.351880000000     0.0749609  
H103     H      0.685650000000     0.477760000000     0.087310000000     0.0664059  
H104     H      0.728050000000     0.438990000000     0.142440000000     0.0567014  
H105     H      0.627360000000     0.332940000000     0.147400000000     0.0745614  
H106     H      0.839250000000     0.131630000000     0.158430000000     0.0569657  
H107     H      0.877900000000     0.090720000000     0.102530000000     0.0571073  
H108     H      0.987970000000     0.186770000000     0.107920000000     0.0723647  
H109     H      0.815450000000     0.396050000000     0.389330000000     0.042054   
H110     H      0.857180000000     0.437930000000     0.445930000000     0.0476851  
H111     H      0.970970000000     0.451110000000     0.361300000000     0.0688522  
H112     H      0.929380000000     0.237850000000     0.355850000000     0.0602702  
H113     H      0.967050000000     0.199770000000     0.414480000000     0.0675779  
H114     H      0.880890000000     0.082490000000     0.398780000000     0.0736875  
H115     H      0.682070000000     0.485950000000     0.398130000000     0.0513742  
H116     H      0.720570000000     0.450200000000     0.338380000000     0.056483   
H117     H      0.627990000000     0.336710000000     0.343920000000     0.0764441  
H118     H      0.888150000000     0.323960000000     0.110590000000     0.046259   
H119     H      0.932240000000     0.365380000000     0.055510000000     0.0553976  
H120     H      0.940490000000     0.482120000000     0.138820000000     0.0638686  
H121     H      0.585720000000     0.189540000000     0.597970000000     0.0581605  
H122     H      0.625590000000     0.230440000000     0.653280000000     0.0582717  
H123     H      0.737120000000     0.136780000000     0.643300000000     0.0705317  
H124     H      0.682400000000     0.089760000000     0.900590000000     0.0538099  
H125     H      0.721410000000     0.127370000000     0.842350000000     0.0640887  
H126     H      0.631070000000     0.242120000000     0.851880000000     0.0749745  
H127     H      0.685650000000     0.477760000000     0.587310000000     0.0664078  
H128     H      0.728050000000     0.438990000000     0.642440000000     0.0567063  
H129     H      0.627360000000     0.332940000000     0.647400000000     0.0745646  
H130     H      0.839250000000     0.131630000000     0.658430000000     0.0569661  
H131     H      0.877900000000     0.090720000000     0.602530000000     0.0571097  
H132     H      0.987970000000     0.186770000000     0.607920000000     0.0723663  
H133     H      0.815450000000     0.396050000000     0.889330000000     0.0420577  
H134     H      0.857180000000     0.437930000000     0.945930000000     0.0476952  
H135     H      0.970970000000     0.451110000000     0.861300000000     0.0688523  
H136     H      0.929380000000     0.237850000000     0.855850000000     0.0602714  
H137     H      0.967050000000     0.199770000000     0.914480000000     0.067582   
H138     H      0.880890000000     0.082490000000     0.898780000000     0.0736899  
H139     H      0.682070000000     0.485950000000     0.898130000000     0.051377   
H140     H      0.720570000000     0.450200000000     0.838380000000     0.0564835  
H141     H      0.627990000000     0.336710000000     0.843920000000     0.0764439  
H142     H      0.888150000000     0.323960000000     0.610590000000     0.0462621  
H143     H      0.932240000000     0.365380000000     0.555510000000     0.0554038  
H144     H      0.940490000000     0.482120000000     0.638820000000     0.0638696  
H145     H      0.585720000000     0.689540000000     0.097970000000     0.0581726  
H146     H      0.625590000000     0.730440000000     0.153280000000     0.0582699  
H147     H      0.737120000000     0.636780000000     0.143290000000     0.0705371  
H148     H      0.682400000000     0.589760000000     0.400590000000     0.0538241  
H149     H      0.721410000000     0.627370000000     0.342350000000     0.0641312  
H150     H      0.631070000000     0.742120000000     0.351880000000     0.0749625  
H151     H      0.685650000000     0.977760000000     0.087310000000     0.0664491  
H152     H      0.728050000000     0.938980000000     0.142440000000     0.0567306  
H153     H      0.627360000000     0.832940000000     0.147400000000     0.0745616  
H154     H      0.839250000000     0.631620000000     0.158430000000     0.0569798  
H155     H      0.877900000000     0.590720000000     0.102530000000     0.0571313  
H156     H      0.987970000000     0.686770000000     0.107920000000     0.0723678  
H157     H      0.815450000000     0.896050000000     0.389330000000     0.0420609  
H158     H      0.857180000000     0.937930000000     0.445930000000     0.0477027  
H159     H      0.970970000000     0.951110000000     0.361300000000     0.0688748  
H160     H      0.929380000000     0.737850000000     0.355850000000     0.0602776  
H161     H      0.967050000000     0.699770000000     0.414480000000     0.0675732  
H162     H      0.880890000000     0.582490000000     0.398780000000     0.0737241  
H163     H      0.682070000000     0.985940000000     0.398130000000     0.0514245  
H164     H      0.720570000000     0.950200000000     0.338380000000     0.0565189  
H165     H      0.627990000000     0.836710000000     0.343920000000     0.0764446  
H166     H      0.888150000000     0.823960000000     0.110590000000     0.0462615  
H167     H      0.932240000000     0.865380000000     0.055510000000     0.0554106  
H168     H      0.940490000000     0.982120000000     0.138820000000     0.0639112  
H169     H      0.585720000000     0.689540000000     0.597970000000     0.0581639  
H170     H      0.625590000000     0.730440000000     0.653280000000     0.0582721  
H171     H      0.737120000000     0.636780000000     0.643300000000     0.0705397  
H172     H      0.682400000000     0.589760000000     0.900590000000     0.0538261  
H173     H      0.721410000000     0.627370000000     0.842350000000     0.0641302  
H174     H      0.631070000000     0.742120000000     0.851880000000     0.0749761  
H175     H      0.685650000000     0.977760000000     0.587310000000     0.066451   
H176     H      0.728050000000     0.938980000000     0.642440000000     0.0567354  
H177     H      0.627360000000     0.832940000000     0.647400000000     0.0745648  
H178     H      0.839250000000     0.631620000000     0.658430000000     0.0569801  
H179     H      0.877900000000     0.590720000000     0.602530000000     0.0571337  
H180     H      0.987970000000     0.686770000000     0.607920000000     0.0723695  
H181     H      0.815450000000     0.896050000000     0.889330000000     0.0420646  
H182     H      0.857180000000     0.937930000000     0.945930000000     0.0477128  
H183     H      0.970970000000     0.951110000000     0.861300000000     0.0688749  
H184     H      0.929380000000     0.737850000000     0.855850000000     0.0602787  
H185     H      0.967050000000     0.699770000000     0.914480000000     0.0675772  
H186     H      0.880890000000     0.582490000000     0.898780000000     0.0737265  
H187     H      0.682070000000     0.985940000000     0.898130000000     0.0514274  
H188     H      0.720570000000     0.950200000000     0.838380000000     0.0565193  
H189     H      0.627990000000     0.836710000000     0.843920000000     0.0764444  
H190     H      0.888150000000     0.823960000000     0.610590000000     0.0462646  
H191     H      0.932240000000     0.865380000000     0.555510000000     0.0554169  
H192     H      0.940490000000     0.982120000000     0.638820000000     0.0639121  
N1       N      0.184040000000     0.186020000000     0.153350000000    -0.16459    
N2       N      0.137750000000     0.138430000000     0.087620000000    -0.179503   
N3       N      0.205820000000     0.089500000000     0.077800000000    -0.0256836  
N4       N      0.178620000000     0.187220000000     0.341980000000    -0.163636   
N5       N      0.133300000000     0.143820000000     0.410740000000    -0.180882   
N6       N      0.086180000000     0.213720000000     0.419410000000    -0.0262423  
N7       N      0.180710000000     0.383280000000     0.149700000000    -0.164835   
N8       N      0.130750000000     0.428600000000     0.084970000000    -0.179485   
N9       N      0.074830000000     0.365130000000     0.086960000000    -0.0280595  
N10      N      0.435360000000     0.136400000000     0.100110000000    -0.165833   
N11      N      0.390560000000     0.184070000000     0.166170000000    -0.180128   
N12      N      0.457430000000     0.235310000000     0.172570000000    -0.0257729  
N13      N      0.418440000000     0.443450000000     0.408690000000    -0.164232   
N14      N      0.370590000000     0.398290000000     0.344200000000    -0.182483   
N15      N      0.421940000000     0.429620000000     0.291790000000    -0.0387999  
N16      N      0.426250000000     0.138490000000     0.411650000000    -0.164696   
N17      N      0.382650000000     0.182530000000     0.342420000000    -0.180772   
N18      N      0.338530000000     0.111230000000     0.329850000000    -0.0251063  
N19      N      0.176730000000     0.391120000000     0.336170000000    -0.165181   
N20      N      0.132470000000     0.431940000000     0.406210000000    -0.183355   
N21      N      0.083710000000     0.362760000000     0.411790000000    -0.0267836  
N22      N      0.435750000000     0.428120000000     0.091990000000    -0.162666   
N23      N      0.387660000000     0.380490000000     0.154990000000    -0.180302   
N24      N      0.417430000000     0.432850000000     0.207770000000    -0.038647   
N25      N      0.184040000000     0.186020000000     0.653350000000    -0.164591   
N26      N      0.137750000000     0.138430000000     0.587620000000    -0.179511   
N27      N      0.205820000000     0.089500000000     0.577800000000    -0.0256841  
N28      N      0.178620000000     0.187220000000     0.841980000000    -0.163622   
N29      N      0.133300000000     0.143820000000     0.910740000000    -0.180884   
N30      N      0.086180000000     0.213720000000     0.919410000000    -0.0262456  
N31      N      0.180710000000     0.383280000000     0.649700000000    -0.164803   
N32      N      0.130750000000     0.428600000000     0.584970000000    -0.179484   
N33      N      0.074830000000     0.365130000000     0.586960000000    -0.0280522  
N34      N      0.435360000000     0.136400000000     0.600110000000    -0.165834   
N35      N      0.390560000000     0.184070000000     0.666170000000    -0.180128   
N36      N      0.457430000000     0.235310000000     0.672570000000    -0.0257729  
N37      N      0.418440000000     0.443450000000     0.908690000000    -0.164226   
N38      N      0.370590000000     0.398290000000     0.844200000000    -0.182483   
N39      N      0.421940000000     0.429620000000     0.791790000000    -0.0388001  
N40      N      0.426250000000     0.138490000000     0.911650000000    -0.164693   
N41      N      0.382650000000     0.182530000000     0.842420000000    -0.180772   
N42      N      0.338530000000     0.111230000000     0.829850000000    -0.0251069  
N43      N      0.176730000000     0.391120000000     0.836170000000    -0.165181   
N44      N      0.132470000000     0.431940000000     0.906210000000    -0.183352   
N45      N      0.083710000000     0.362760000000     0.911790000000    -0.0267851  
N46      N      0.435750000000     0.428120000000     0.591990000000    -0.162663   
N47      N      0.387660000000     0.380490000000     0.654990000000    -0.180302   
N48      N      0.417430000000     0.432850000000     0.707770000000    -0.0386471  
N49      N      0.184040000000     0.686020000000     0.153350000000    -0.164593   
N50      N      0.137750000000     0.638430000000     0.087620000000    -0.179477   
N51      N      0.205820000000     0.589500000000     0.077800000000    -0.0256826  
N52      N      0.178620000000     0.687220000000     0.341980000000    -0.163612   
N53      N      0.133300000000     0.643820000000     0.410740000000    -0.180899   
N54      N      0.086180000000     0.713720000000     0.419410000000    -0.026243   
N55      N      0.180710000000     0.883280000000     0.149700000000    -0.164834   
N56      N      0.130750000000     0.928600000000     0.084970000000    -0.179496   
N57      N      0.074830000000     0.865130000000     0.086960000000    -0.0280619  
N58      N      0.435360000000     0.636400000000     0.100110000000    -0.165817   
N59      N      0.390560000000     0.684070000000     0.166170000000    -0.180106   
N60      N      0.457430000000     0.735310000000     0.172570000000    -0.0257725  
N61      N      0.418440000000     0.943450000000     0.408690000000    -0.164223   
N62      N      0.370590000000     0.898290000000     0.344200000000    -0.182485   
N63      N      0.421940000000     0.929620000000     0.291790000000    -0.0387965  
N64      N      0.426250000000     0.638490000000     0.411650000000    -0.164693   
N65      N      0.382650000000     0.682520000000     0.342420000000    -0.180751   
N66      N      0.338530000000     0.611220000000     0.329850000000    -0.0250979  
N67      N      0.176730000000     0.891120000000     0.336170000000    -0.165168   
N68      N      0.132470000000     0.931940000000     0.406210000000    -0.183335   
N69      N      0.083710000000     0.862760000000     0.411790000000    -0.0267839  
N70      N      0.435750000000     0.928120000000     0.091990000000    -0.162635   
N71      N      0.387660000000     0.880500000000     0.154990000000    -0.180247   
N72      N      0.417430000000     0.932850000000     0.207770000000    -0.0386477  
N73      N      0.184040000000     0.686020000000     0.653350000000    -0.164593   
N74      N      0.137750000000     0.638430000000     0.587620000000    -0.179485   
N75      N      0.205820000000     0.589500000000     0.577800000000    -0.0256831  
N76      N      0.178620000000     0.687220000000     0.841980000000    -0.163597   
N77      N      0.133300000000     0.643820000000     0.910740000000    -0.1809     
N78      N      0.086180000000     0.713720000000     0.919410000000    -0.0262464  
N79      N      0.180710000000     0.883280000000     0.649700000000    -0.164802   
N80      N      0.130750000000     0.928600000000     0.584970000000    -0.179495   
N81      N      0.074830000000     0.865130000000     0.586960000000    -0.0280546  
N82      N      0.435360000000     0.636400000000     0.600110000000    -0.165817   
N83      N      0.390560000000     0.684070000000     0.666170000000    -0.180106   
N84      N      0.457430000000     0.735310000000     0.672570000000    -0.0257726  
N85      N      0.418440000000     0.943450000000     0.908690000000    -0.164217   
N86      N      0.370590000000     0.898290000000     0.844200000000    -0.182485   
N87      N      0.421940000000     0.929620000000     0.791790000000    -0.0387968  
N88      N      0.426250000000     0.638490000000     0.911650000000    -0.16469    
N89      N      0.382650000000     0.682520000000     0.842420000000    -0.180751   
N90      N      0.338530000000     0.611220000000     0.829850000000    -0.0250984  
N91      N      0.176730000000     0.891120000000     0.836170000000    -0.165168   
N92      N      0.132470000000     0.931940000000     0.906210000000    -0.183332   
N93      N      0.083710000000     0.862760000000     0.911790000000    -0.0267854  
N94      N      0.435750000000     0.928120000000     0.591990000000    -0.162632   
N95      N      0.387660000000     0.880500000000     0.654990000000    -0.180246   
N96      N      0.417430000000     0.932850000000     0.707770000000    -0.0386478  
N97      N      0.684040000000     0.186020000000     0.153350000000    -0.16459    
N98      N      0.637750000000     0.138430000000     0.087620000000    -0.179474   
N99      N      0.705820000000     0.089500000000     0.077800000000    -0.0256821  
N100     N      0.678620000000     0.187220000000     0.341980000000    -0.163638   
N101     N      0.633300000000     0.143820000000     0.410740000000    -0.1809     
N102     N      0.586180000000     0.213720000000     0.419410000000    -0.0262428  
N103     N      0.680710000000     0.383280000000     0.149700000000    -0.164833   
N104     N      0.630750000000     0.428600000000     0.084970000000    -0.179481   
N105     N      0.574830000000     0.365130000000     0.086960000000    -0.0280607  
N106     N      0.935360000000     0.136400000000     0.100110000000    -0.165801   
N107     N      0.890560000000     0.184070000000     0.166170000000    -0.180129   
N108     N      0.957430000000     0.235310000000     0.172570000000    -0.0257766  
N109     N      0.918440000000     0.443450000000     0.408690000000    -0.164224   
N110     N      0.870590000000     0.398290000000     0.344200000000    -0.182483   
N111     N      0.921940000000     0.429620000000     0.291790000000    -0.0387981  
N112     N      0.926250000000     0.138490000000     0.411650000000    -0.164689   
N113     N      0.882650000000     0.182530000000     0.342420000000    -0.180771   
N114     N      0.838530000000     0.111230000000     0.329850000000    -0.025107   
N115     N      0.676730000000     0.391120000000     0.336170000000    -0.165155   
N116     N      0.632470000000     0.431940000000     0.406210000000    -0.183352   
N117     N      0.583710000000     0.362760000000     0.411790000000    -0.0267846  
N118     N      0.935750000000     0.428120000000     0.091990000000    -0.162657   
N119     N      0.887660000000     0.380490000000     0.154990000000    -0.180302   
N120     N      0.917430000000     0.432850000000     0.207770000000    -0.0386444  
N121     N      0.684040000000     0.186020000000     0.653350000000    -0.16459    
N122     N      0.637750000000     0.138430000000     0.587620000000    -0.179482   
N123     N      0.705820000000     0.089500000000     0.577800000000    -0.0256826  
N124     N      0.678620000000     0.187220000000     0.841980000000    -0.163624   
N125     N      0.633300000000     0.143820000000     0.910740000000    -0.180902   
N126     N      0.586180000000     0.213720000000     0.919410000000    -0.0262461  
N127     N      0.680710000000     0.383280000000     0.649700000000    -0.164801   
N128     N      0.630750000000     0.428600000000     0.584970000000    -0.17948    
N129     N      0.574830000000     0.365130000000     0.586960000000    -0.0280534  
N130     N      0.935360000000     0.136400000000     0.600110000000    -0.165801   
N131     N      0.890560000000     0.184070000000     0.666170000000    -0.180129   
N132     N      0.957430000000     0.235310000000     0.672570000000    -0.0257766  
N133     N      0.918440000000     0.443450000000     0.908690000000    -0.164219   
N134     N      0.870590000000     0.398290000000     0.844200000000    -0.182483   
N135     N      0.921940000000     0.429620000000     0.791790000000    -0.0387983  
N136     N      0.926250000000     0.138490000000     0.911650000000    -0.164685   
N137     N      0.882650000000     0.182530000000     0.842420000000    -0.180771   
N138     N      0.838530000000     0.111230000000     0.829850000000    -0.0251075  
N139     N      0.676730000000     0.391120000000     0.836170000000    -0.165155   
N140     N      0.632470000000     0.431940000000     0.906210000000    -0.183349   
N141     N      0.583710000000     0.362760000000     0.911790000000    -0.0267861  
N142     N      0.935750000000     0.428120000000     0.591990000000    -0.162655   
N143     N      0.887660000000     0.380490000000     0.654990000000    -0.180302   
N144     N      0.917430000000     0.432850000000     0.707770000000    -0.0386445  
N145     N      0.684040000000     0.686020000000     0.153350000000    -0.164592   
N146     N      0.637750000000     0.638430000000     0.087620000000    -0.179448   
N147     N      0.705820000000     0.589500000000     0.077800000000    -0.0256811  
N148     N      0.678620000000     0.687220000000     0.341980000000    -0.163614   
N149     N      0.633300000000     0.643820000000     0.410740000000    -0.180917   
N150     N      0.586180000000     0.713720000000     0.419410000000    -0.0262435  
N151     N      0.680710000000     0.883280000000     0.149700000000    -0.164832   
N152     N      0.630750000000     0.928600000000     0.084970000000    -0.179492   
N153     N      0.574830000000     0.865130000000     0.086960000000    -0.0280632  
N154     N      0.935360000000     0.636400000000     0.100110000000    -0.165784   
N155     N      0.890560000000     0.684070000000     0.166170000000    -0.180107   
N156     N      0.957430000000     0.735310000000     0.172570000000    -0.0257763  
N157     N      0.918440000000     0.943450000000     0.408690000000    -0.164215   
N158     N      0.870590000000     0.898290000000     0.344200000000    -0.182485   
N159     N      0.921940000000     0.929620000000     0.291790000000    -0.0387947  
N160     N      0.926250000000     0.638490000000     0.411650000000    -0.164686   
N161     N      0.882650000000     0.682520000000     0.342420000000    -0.18075    
N162     N      0.838530000000     0.611220000000     0.329850000000    -0.0250986  
N163     N      0.676730000000     0.891120000000     0.336170000000    -0.165142   
N164     N      0.632470000000     0.931940000000     0.406210000000    -0.183332   
N165     N      0.583710000000     0.862760000000     0.411790000000    -0.0267849  
N166     N      0.935750000000     0.928120000000     0.091990000000    -0.162626   
N167     N      0.887660000000     0.880500000000     0.154990000000    -0.180247   
N168     N      0.917430000000     0.932850000000     0.207770000000    -0.0386451  
N169     N      0.684040000000     0.686020000000     0.653350000000    -0.164593   
N170     N      0.637750000000     0.638430000000     0.587620000000    -0.179456   
N171     N      0.705820000000     0.589500000000     0.577800000000    -0.0256816  
N172     N      0.678620000000     0.687220000000     0.841980000000    -0.1636     
N173     N      0.633300000000     0.643820000000     0.910740000000    -0.180918   
N174     N      0.586180000000     0.713720000000     0.919410000000    -0.0262469  
N175     N      0.680710000000     0.883280000000     0.649700000000    -0.1648     
N176     N      0.630750000000     0.928600000000     0.584970000000    -0.179491   
N177     N      0.574830000000     0.865130000000     0.586960000000    -0.0280558  
N178     N      0.935360000000     0.636400000000     0.600110000000    -0.165785   
N179     N      0.890560000000     0.684070000000     0.666170000000    -0.180107   
N180     N      0.957430000000     0.735310000000     0.672570000000    -0.0257763  
N181     N      0.918440000000     0.943450000000     0.908690000000    -0.16421    
N182     N      0.870590000000     0.898290000000     0.844200000000    -0.182485   
N183     N      0.921940000000     0.929620000000     0.791790000000    -0.038795   
N184     N      0.926250000000     0.638490000000     0.911650000000    -0.164682   
N185     N      0.882650000000     0.682520000000     0.842420000000    -0.180751   
N186     N      0.838530000000     0.611220000000     0.829850000000    -0.0250991  
N187     N      0.676730000000     0.891120000000     0.836170000000    -0.165142   
N188     N      0.632470000000     0.931940000000     0.906210000000    -0.183329   
N189     N      0.583710000000     0.862760000000     0.911790000000    -0.0267864  
N190     N      0.935750000000     0.928120000000     0.591990000000    -0.162624   
N191     N      0.887660000000     0.880500000000     0.654990000000    -0.180247   
N192     N      0.917430000000     0.932850000000     0.707770000000    -0.0386452  
O1       O      0.486280000000     0.453290000000     0.443270000000    -0.348457   
O2       O      0.071650000000     0.134350000000     0.456110000000    -0.338491   
O3       O      0.434880000000     0.076970000000     0.457800000000    -0.356427   
O4       O      0.124900000000     0.493030000000     0.452900000000    -0.358155   
O5       O      0.485470000000     0.134140000000     0.459560000000    -0.352616   
O6       O      0.071080000000     0.439310000000     0.451350000000    -0.341757   
O7       O      0.125460000000     0.080660000000     0.455170000000    -0.353098   
O8       O      0.425550000000     0.490860000000     0.467710000000    -0.351673   
O9       O      0.068270000000     0.439010000000     0.040370000000    -0.346051   
O10      O      0.493630000000     0.129500000000     0.051190000000    -0.364664   
O11      O      0.448070000000     0.496260000000     0.056820000000    -0.365585   
O12      O      0.125580000000     0.075460000000     0.043380000000    -0.346385   
O13      O      0.074530000000     0.131870000000     0.044100000000    -0.358043   
O14      O      0.484380000000     0.433440000000     0.034150000000    -0.348021   
O15      O      0.123150000000     0.491650000000     0.040690000000    -0.361417   
O16      O      0.438430000000     0.076850000000     0.051740000000    -0.364357   
O17      O      0.528130000000     0.537130000000     0.481380000000    -0.588936   
O18      O      0.329300000000     0.381330000000     0.204570000000    -0.349344   
O19      O      0.243980000000     0.193920000000     0.200830000000    -0.361746   
O20      O      0.379680000000     0.247080000000     0.210210000000    -0.332444   
O21      O      0.188310000000     0.324720000000     0.198770000000    -0.362629   
O22      O      0.326520000000     0.192660000000     0.207960000000    -0.359715   
O23      O      0.241510000000     0.379440000000     0.196690000000    -0.365537   
O24      O      0.188570000000     0.246210000000     0.201130000000    -0.362917   
O25      O      0.371490000000     0.318000000000     0.197200000000    -0.346666   
O26      O      0.236090000000     0.387230000000     0.288050000000    -0.341829   
O27      O      0.322800000000     0.191240000000     0.295210000000    -0.33883    
O28      O      0.372730000000     0.340470000000     0.293560000000    -0.34179    
O29      O      0.186460000000     0.247460000000     0.294500000000    -0.352935   
O30      O      0.238240000000     0.191520000000     0.293940000000    -0.347908   
O31      O      0.308980000000     0.380950000000     0.302200000000    -0.341988   
O32      O      0.185780000000     0.329890000000     0.290840000000    -0.357701   
O33      O      0.375630000000     0.246020000000     0.298130000000    -0.354469   
O34      O      0.280890000000     0.289000000000     0.267330000000    -0.58705    
O35      O      0.229250000000     0.059400000000     0.099730000000    -0.0991345  
O36      O      0.213810000000     0.094070000000     0.036590000000    -0.078383   
O37      O      0.055070000000     0.235580000000     0.397530000000    -0.0814396  
O38      O      0.092250000000     0.224060000000     0.460000000000    -0.0665374  
O39      O      0.042810000000     0.354730000000     0.114390000000    -0.0772682  
O40      O      0.074320000000     0.346380000000     0.048710000000    -0.0619527  
O41      O      0.475790000000     0.267460000000     0.148920000000    -0.0791326  
O42      O      0.469410000000     0.231600000000     0.212970000000    -0.0703894  
O43      O      0.449020000000     0.404040000000     0.268620000000    -0.0476233  
O44      O      0.394040000000     0.458270000000     0.272600000000    -0.0509067  
O45      O      0.307690000000     0.086830000000     0.349630000000    -0.0949863  
O46      O      0.346960000000     0.102850000000     0.289250000000    -0.0725605  
O47      O      0.090290000000     0.348240000000     0.451140000000    -0.0605651  
O48      O      0.050570000000     0.345250000000     0.389160000000    -0.0743868  
O49      O      0.391700000000     0.459860000000     0.230910000000    -0.0510199  
O50      O      0.446820000000     0.405770000000     0.226920000000    -0.0474643  
O51      O      0.486280000000     0.453290000000     0.943270000000    -0.348402   
O52      O      0.071650000000     0.134350000000     0.956110000000    -0.338467   
O53      O      0.434880000000     0.076970000000     0.957800000000    -0.356395   
O54      O      0.124900000000     0.493030000000     0.952900000000    -0.358146   
O55      O      0.485470000000     0.134140000000     0.959560000000    -0.352584   
O56      O      0.071080000000     0.439310000000     0.951350000000    -0.341705   
O57      O      0.125460000000     0.080660000000     0.955170000000    -0.353092   
O58      O      0.425550000000     0.490860000000     0.967710000000    -0.351635   
O59      O      0.068270000000     0.439010000000     0.540380000000    -0.345978   
O60      O      0.493630000000     0.129500000000     0.551190000000    -0.364668   
O61      O      0.448070000000     0.496260000000     0.556820000000    -0.365578   
O62      O      0.125580000000     0.075460000000     0.543380000000    -0.346363   
O63      O      0.074530000000     0.131870000000     0.544100000000    -0.358041   
O64      O      0.484380000000     0.433440000000     0.534150000000    -0.347962   
O65      O      0.123150000000     0.491650000000     0.540690000000    -0.361396   
O66      O      0.438430000000     0.076850000000     0.551740000000    -0.364361   
O67      O      0.528130000000     0.537130000000     0.981380000000    -0.588898   
O68      O      0.329300000000     0.381330000000     0.704570000000    -0.349342   
O69      O      0.243980000000     0.193920000000     0.700830000000    -0.361746   
O70      O      0.379680000000     0.247080000000     0.710210000000    -0.332445   
O71      O      0.188310000000     0.324720000000     0.698770000000    -0.362678   
O72      O      0.326520000000     0.192660000000     0.707960000000    -0.35972    
O73      O      0.241510000000     0.379440000000     0.696690000000    -0.36558    
O74      O      0.188570000000     0.246210000000     0.701130000000    -0.362912   
O75      O      0.371490000000     0.318000000000     0.697200000000    -0.346665   
O76      O      0.236090000000     0.387230000000     0.788050000000    -0.341831   
O77      O      0.322800000000     0.191240000000     0.795210000000    -0.338836   
O78      O      0.372730000000     0.340470000000     0.793560000000    -0.34179    
O79      O      0.186460000000     0.247460000000     0.794500000000    -0.352919   
O80      O      0.238240000000     0.191520000000     0.793930000000    -0.34791    
O81      O      0.308980000000     0.380950000000     0.802200000000    -0.341988   
O82      O      0.185780000000     0.329890000000     0.790840000000    -0.357704   
O83      O      0.375630000000     0.246020000000     0.798130000000    -0.354469   
O84      O      0.280890000000     0.289000000000     0.767330000000    -0.587054   
O85      O      0.229250000000     0.059400000000     0.599730000000    -0.0991308  
O86      O      0.213810000000     0.094070000000     0.536590000000    -0.078368   
O87      O      0.055070000000     0.235580000000     0.897530000000    -0.081436   
O88      O      0.092250000000     0.224060000000     0.960000000000    -0.0665188  
O89      O      0.042810000000     0.354730000000     0.614380000000    -0.0772616  
O90      O      0.074320000000     0.346380000000     0.548710000000    -0.0619414  
O91      O      0.475790000000     0.267460000000     0.648920000000    -0.079132   
O92      O      0.469410000000     0.231600000000     0.712970000000    -0.0703902  
O93      O      0.449020000000     0.404040000000     0.768620000000    -0.0476238  
O94      O      0.394040000000     0.458270000000     0.772600000000    -0.050907   
O95      O      0.307690000000     0.086830000000     0.849630000000    -0.0949842  
O96      O      0.346960000000     0.102850000000     0.789250000000    -0.0725608  
O97      O      0.090290000000     0.348240000000     0.951140000000    -0.0605465  
O98      O      0.050570000000     0.345250000000     0.889160000000    -0.0743838  
O99      O      0.391700000000     0.459860000000     0.730910000000    -0.05102    
O100     O      0.446820000000     0.405770000000     0.726920000000    -0.0474652  
O101     O      0.486280000000     0.953290000000     0.443270000000    -0.34845    
O102     O      0.071650000000     0.634350000000     0.456110000000    -0.338489   
O103     O      0.434880000000     0.576970000000     0.457800000000    -0.356417   
O104     O      0.124900000000     0.993020000000     0.452900000000    -0.358171   
O105     O      0.485470000000     0.634140000000     0.459560000000    -0.352615   
O106     O      0.071080000000     0.939310000000     0.451350000000    -0.341776   
O107     O      0.125460000000     0.580660000000     0.455170000000    -0.353089   
O108     O      0.425550000000     0.990860000000     0.467710000000    -0.351552   
O109     O      0.068270000000     0.939020000000     0.040370000000    -0.346129   
O110     O      0.493630000000     0.629500000000     0.051190000000    -0.364627   
O111     O      0.448070000000     0.996260000000     0.056820000000    -0.36546    
O112     O      0.125580000000     0.575450000000     0.043380000000    -0.346299   
O113     O      0.074530000000     0.631870000000     0.044100000000    -0.358006   
O114     O      0.484380000000     0.933440000000     0.034150000000    -0.348023   
O115     O      0.123150000000     0.991650000000     0.040690000000    -0.361308   
O116     O      0.438430000000     0.576840000000     0.051740000000    -0.364275   
O117     O      0.528130000000     0.037130000000     0.481380000000    -0.588991   
O118     O      0.329300000000     0.881330000000     0.204570000000    -0.349325   
O119     O      0.243980000000     0.693920000000     0.200830000000    -0.361783   
O120     O      0.379680000000     0.747090000000     0.210210000000    -0.332382   
O121     O      0.188310000000     0.824720000000     0.198770000000    -0.362636   
O122     O      0.326520000000     0.692660000000     0.207960000000    -0.359719   
O123     O      0.241510000000     0.879440000000     0.196690000000    -0.365562   
O124     O      0.188570000000     0.746210000000     0.201130000000    -0.362926   
O125     O      0.371490000000     0.818000000000     0.197200000000    -0.346735   
O126     O      0.236090000000     0.887230000000     0.288050000000    -0.341857   
O127     O      0.322800000000     0.691250000000     0.295210000000    -0.338909   
O128     O      0.372730000000     0.840470000000     0.293560000000    -0.341798   
O129     O      0.186460000000     0.747460000000     0.294500000000    -0.352943   
O130     O      0.238240000000     0.691520000000     0.293940000000    -0.347943   
O131     O      0.308980000000     0.880950000000     0.302200000000    -0.342015   
O132     O      0.185780000000     0.829890000000     0.290840000000    -0.357709   
O133     O      0.375630000000     0.746030000000     0.298130000000    -0.354425   
O134     O      0.280890000000     0.789000000000     0.267330000000    -0.586987   
O135     O      0.229250000000     0.559400000000     0.099730000000    -0.099061   
O136     O      0.213810000000     0.594070000000     0.036590000000    -0.0783563  
O137     O      0.055070000000     0.735580000000     0.397530000000    -0.0814378  
O138     O      0.092250000000     0.724060000000     0.460000000000    -0.0665405  
O139     O      0.042810000000     0.854730000000     0.114390000000    -0.0772631  
O140     O      0.074320000000     0.846380000000     0.048710000000    -0.0619598  
O141     O      0.475790000000     0.767460000000     0.148920000000    -0.0791319  
O142     O      0.469410000000     0.731600000000     0.212970000000    -0.0703857  
O143     O      0.449020000000     0.904040000000     0.268620000000    -0.0476148  
O144     O      0.394040000000     0.958270000000     0.272600000000    -0.0508785  
O145     O      0.307690000000     0.586830000000     0.349630000000    -0.0949437  
O146     O      0.346960000000     0.602850000000     0.289250000000    -0.0725289  
O147     O      0.090290000000     0.848240000000     0.451140000000    -0.0605662  
O148     O      0.050570000000     0.845250000000     0.389160000000    -0.0743863  
O149     O      0.391700000000     0.959850000000     0.230910000000    -0.050983   
O150     O      0.446820000000     0.905760000000     0.226920000000    -0.0474562  
O151     O      0.486280000000     0.953290000000     0.943270000000    -0.348395   
O152     O      0.071650000000     0.634350000000     0.956110000000    -0.338465   
O153     O      0.434880000000     0.576970000000     0.957800000000    -0.356385   
O154     O      0.124900000000     0.993020000000     0.952900000000    -0.358162   
O155     O      0.485470000000     0.634140000000     0.959560000000    -0.352583   
O156     O      0.071080000000     0.939310000000     0.951350000000    -0.341724   
O157     O      0.125460000000     0.580660000000     0.955170000000    -0.353082   
O158     O      0.425550000000     0.990860000000     0.967710000000    -0.351514   
O159     O      0.068270000000     0.939020000000     0.540380000000    -0.346056   
O160     O      0.493630000000     0.629500000000     0.551190000000    -0.364631   
O161     O      0.448070000000     0.996260000000     0.556820000000    -0.365453   
O162     O      0.125580000000     0.575450000000     0.543380000000    -0.346277   
O163     O      0.074530000000     0.631870000000     0.544100000000    -0.358004   
O164     O      0.484380000000     0.933440000000     0.534150000000    -0.347964   
O165     O      0.123150000000     0.991650000000     0.540690000000    -0.361287   
O166     O      0.438430000000     0.576840000000     0.551740000000    -0.36428    
O167     O      0.528130000000     0.037130000000     0.981380000000    -0.588952   
O168     O      0.329300000000     0.881330000000     0.704570000000    -0.349323   
O169     O      0.243980000000     0.693920000000     0.700830000000    -0.361783   
O170     O      0.379680000000     0.747090000000     0.710210000000    -0.332382   
O171     O      0.188310000000     0.824720000000     0.698770000000    -0.362685   
O172     O      0.326520000000     0.692660000000     0.707960000000    -0.359724   
O173     O      0.241510000000     0.879440000000     0.696690000000    -0.365606   
O174     O      0.188570000000     0.746210000000     0.701130000000    -0.362921   
O175     O      0.371490000000     0.818000000000     0.697200000000    -0.346734   
O176     O      0.236090000000     0.887230000000     0.788050000000    -0.341859   
O177     O      0.322800000000     0.691250000000     0.795210000000    -0.338915   
O178     O      0.372730000000     0.840470000000     0.793560000000    -0.341798   
O179     O      0.186460000000     0.747460000000     0.794500000000    -0.352927   
O180     O      0.238240000000     0.691520000000     0.793930000000    -0.347945   
O181     O      0.308980000000     0.880950000000     0.802200000000    -0.342015   
O182     O      0.185780000000     0.829890000000     0.790840000000    -0.357712   
O183     O      0.375630000000     0.746030000000     0.798130000000    -0.354425   
O184     O      0.280890000000     0.789000000000     0.767330000000    -0.586991   
O185     O      0.229250000000     0.559400000000     0.599730000000    -0.0990573  
O186     O      0.213810000000     0.594070000000     0.536590000000    -0.0783413  
O187     O      0.055070000000     0.735580000000     0.897530000000    -0.0814342  
O188     O      0.092250000000     0.724060000000     0.960000000000    -0.066522   
O189     O      0.042810000000     0.854730000000     0.614380000000    -0.0772566  
O190     O      0.074320000000     0.846380000000     0.548710000000    -0.0619485  
O191     O      0.475790000000     0.767460000000     0.648920000000    -0.0791313  
O192     O      0.469410000000     0.731600000000     0.712970000000    -0.0703866  
O193     O      0.449020000000     0.904040000000     0.768620000000    -0.0476153  
O194     O      0.394040000000     0.958270000000     0.772600000000    -0.0508789  
O195     O      0.307690000000     0.586830000000     0.849630000000    -0.0949417  
O196     O      0.346960000000     0.602850000000     0.789250000000    -0.0725293  
O197     O      0.090290000000     0.848240000000     0.951140000000    -0.0605476  
O198     O      0.050570000000     0.845250000000     0.889160000000    -0.0743833  
O199     O      0.391700000000     0.959850000000     0.730910000000    -0.0509831  
O200     O      0.446820000000     0.905760000000     0.726920000000    -0.0474571  
O201     O      0.986280000000     0.453290000000     0.443270000000    -0.348344   
O202     O      0.571660000000     0.134350000000     0.456110000000    -0.338545   
O203     O      0.934880000000     0.076970000000     0.457800000000    -0.356421   
O204     O      0.624900000000     0.493030000000     0.452900000000    -0.358109   
O205     O      0.985470000000     0.134140000000     0.459560000000    -0.352507   
O206     O      0.571080000000     0.439310000000     0.451350000000    -0.341743   
O207     O      0.625460000000     0.080660000000     0.455170000000    -0.353088   
O208     O      0.925550000000     0.490860000000     0.467710000000    -0.351673   
O209     O      0.568270000000     0.439010000000     0.040370000000    -0.346034   
O210     O      0.993640000000     0.129500000000     0.051190000000    -0.364492   
O211     O      0.948070000000     0.496260000000     0.056820000000    -0.365573   
O212     O      0.625580000000     0.075460000000     0.043380000000    -0.346304   
O213     O      0.574520000000     0.131870000000     0.044100000000    -0.357961   
O214     O      0.984380000000     0.433440000000     0.034150000000    -0.347914   
O215     O      0.623150000000     0.491650000000     0.040690000000    -0.361374   
O216     O      0.938430000000     0.076850000000     0.051740000000    -0.364319   
O217     O      0.028130000000     0.537130000000     0.481380000000    -0.58895    
O218     O      0.829300000000     0.381330000000     0.204570000000    -0.349348   
O219     O      0.743980000000     0.193920000000     0.200830000000    -0.36174    
O220     O      0.879680000000     0.247080000000     0.210210000000    -0.332441   
O221     O      0.688310000000     0.324720000000     0.198770000000    -0.36262    
O222     O      0.826520000000     0.192660000000     0.207960000000    -0.359712   
O223     O      0.741510000000     0.379440000000     0.196690000000    -0.365539   
O224     O      0.688570000000     0.246210000000     0.201130000000    -0.362905   
O225     O      0.871490000000     0.318000000000     0.197200000000    -0.346663   
O226     O      0.736100000000     0.387230000000     0.288050000000    -0.341761   
O227     O      0.822800000000     0.191240000000     0.295210000000    -0.338836   
O228     O      0.872730000000     0.340470000000     0.293560000000    -0.341783   
O229     O      0.686450000000     0.247460000000     0.294500000000    -0.352888   
O230     O      0.738230000000     0.191520000000     0.293940000000    -0.347957   
O231     O      0.808980000000     0.380950000000     0.302200000000    -0.341981   
O232     O      0.685780000000     0.329890000000     0.290840000000    -0.35766    
O233     O      0.875630000000     0.246020000000     0.298130000000    -0.354463   
O234     O      0.780890000000     0.289000000000     0.267330000000    -0.587052   
O235     O      0.729250000000     0.059400000000     0.099730000000    -0.0991328  
O236     O      0.713810000000     0.094070000000     0.036590000000    -0.0783826  
O237     O      0.555070000000     0.235580000000     0.397530000000    -0.081381   
O238     O      0.592250000000     0.224060000000     0.460000000000    -0.0665152  
O239     O      0.542810000000     0.354730000000     0.114390000000    -0.0771904  
O240     O      0.574320000000     0.346380000000     0.048710000000    -0.0619206  
O241     O      0.975790000000     0.267460000000     0.148920000000    -0.0790804  
O242     O      0.969410000000     0.231600000000     0.212970000000    -0.0703457  
O243     O      0.949020000000     0.404040000000     0.268620000000    -0.0475973  
O244     O      0.894040000000     0.458270000000     0.272600000000    -0.0509015  
O245     O      0.807690000000     0.086830000000     0.349630000000    -0.0949872  
O246     O      0.846960000000     0.102850000000     0.289250000000    -0.0725538  
O247     O      0.590290000000     0.348240000000     0.451140000000    -0.0605486  
O248     O      0.550570000000     0.345250000000     0.389160000000    -0.0743261  
O249     O      0.891700000000     0.459860000000     0.230910000000    -0.0510156  
O250     O      0.946820000000     0.405770000000     0.226920000000    -0.0474403  
O251     O      0.986280000000     0.453290000000     0.943270000000    -0.34829    
O252     O      0.571660000000     0.134350000000     0.956110000000    -0.338521   
O253     O      0.934880000000     0.076970000000     0.957800000000    -0.356389   
O254     O      0.624900000000     0.493030000000     0.952900000000    -0.3581     
O255     O      0.985470000000     0.134140000000     0.959560000000    -0.352475   
O256     O      0.571080000000     0.439310000000     0.951350000000    -0.341691   
O257     O      0.625460000000     0.080660000000     0.955170000000    -0.353082   
O258     O      0.925550000000     0.490860000000     0.967710000000    -0.351636   
O259     O      0.568270000000     0.439010000000     0.540380000000    -0.345962   
O260     O      0.993640000000     0.129500000000     0.551190000000    -0.364496   
O261     O      0.948070000000     0.496260000000     0.556820000000    -0.365566   
O262     O      0.625580000000     0.075460000000     0.543380000000    -0.346282   
O263     O      0.574520000000     0.131870000000     0.544100000000    -0.357958   
O264     O      0.984380000000     0.433440000000     0.534150000000    -0.347856   
O265     O      0.623150000000     0.491650000000     0.540690000000    -0.361353   
O266     O      0.938430000000     0.076850000000     0.551740000000    -0.364324   
O267     O      0.028130000000     0.537130000000     0.981380000000    -0.588911   
O268     O      0.829300000000     0.381330000000     0.704570000000    -0.349345   
O269     O      0.743980000000     0.193920000000     0.700830000000    -0.36174    
O270     O      0.879680000000     0.247080000000     0.710210000000    -0.332442   
O271     O      0.688310000000     0.324720000000     0.698770000000    -0.362668   
O272     O      0.826520000000     0.192660000000     0.707960000000    -0.359717   
O273     O      0.741510000000     0.379440000000     0.696690000000    -0.365583   
O274     O      0.688570000000     0.246210000000     0.701130000000    -0.3629     
O275     O      0.871490000000     0.318000000000     0.697200000000    -0.346663   
O276     O      0.736100000000     0.387230000000     0.788050000000    -0.341764   
O277     O      0.822800000000     0.191240000000     0.795210000000    -0.338842   
O278     O      0.872730000000     0.340470000000     0.793560000000    -0.341783   
O279     O      0.686450000000     0.247460000000     0.794500000000    -0.352872   
O280     O      0.738230000000     0.191520000000     0.793930000000    -0.347959   
O281     O      0.808980000000     0.380950000000     0.802200000000    -0.341981   
O282     O      0.685780000000     0.329890000000     0.790840000000    -0.357663   
O283     O      0.875630000000     0.246020000000     0.798130000000    -0.354463   
O284     O      0.780890000000     0.289000000000     0.767330000000    -0.587056   
O285     O      0.729250000000     0.059400000000     0.599730000000    -0.0991291  
O286     O      0.713810000000     0.094070000000     0.536590000000    -0.0783675  
O287     O      0.555070000000     0.235580000000     0.897530000000    -0.0813774  
O288     O      0.592250000000     0.224060000000     0.960000000000    -0.0664966  
O289     O      0.542810000000     0.354730000000     0.614380000000    -0.0771838  
O290     O      0.574320000000     0.346380000000     0.548710000000    -0.0619093  
O291     O      0.975790000000     0.267460000000     0.648920000000    -0.0790798  
O292     O      0.969410000000     0.231600000000     0.712970000000    -0.0703466  
O293     O      0.949020000000     0.404040000000     0.768620000000    -0.0475978  
O294     O      0.894040000000     0.458270000000     0.772600000000    -0.0509019  
O295     O      0.807690000000     0.086830000000     0.849630000000    -0.0949851  
O296     O      0.846960000000     0.102850000000     0.789250000000    -0.0725541  
O297     O      0.590290000000     0.348240000000     0.951140000000    -0.06053    
O298     O      0.550570000000     0.345250000000     0.889160000000    -0.0743232  
O299     O      0.891700000000     0.459860000000     0.730910000000    -0.0510156  
O300     O      0.946820000000     0.405770000000     0.726920000000    -0.0474412  
O301     O      0.986280000000     0.953290000000     0.443270000000    -0.348337   
O302     O      0.571660000000     0.634350000000     0.456110000000    -0.338544   
O303     O      0.934880000000     0.576970000000     0.457800000000    -0.356411   
O304     O      0.624900000000     0.993020000000     0.452900000000    -0.358126   
O305     O      0.985470000000     0.634140000000     0.459560000000    -0.352506   
O306     O      0.571080000000     0.939310000000     0.451350000000    -0.341762   
O307     O      0.625460000000     0.580660000000     0.455170000000    -0.353079   
O308     O      0.925550000000     0.990860000000     0.467710000000    -0.351552   
O309     O      0.568270000000     0.939020000000     0.040370000000    -0.346112   
O310     O      0.993640000000     0.629500000000     0.051190000000    -0.364455   
O311     O      0.948070000000     0.996260000000     0.056820000000    -0.365449   
O312     O      0.625580000000     0.575450000000     0.043380000000    -0.346218   
O313     O      0.574520000000     0.631870000000     0.044100000000    -0.357923   
O314     O      0.984380000000     0.933440000000     0.034150000000    -0.347916   
O315     O      0.623150000000     0.991650000000     0.040690000000    -0.361265   
O316     O      0.938430000000     0.576840000000     0.051740000000    -0.364238   
O317     O      0.028130000000     0.037130000000     0.481380000000    -0.589004   
O318     O      0.829300000000     0.881330000000     0.204570000000    -0.349329   
O319     O      0.743980000000     0.693920000000     0.200830000000    -0.361778   
O320     O      0.879680000000     0.747090000000     0.210210000000    -0.332379   
O321     O      0.688310000000     0.824720000000     0.198770000000    -0.362626   
O322     O      0.826520000000     0.692660000000     0.207960000000    -0.359716   
O323     O      0.741510000000     0.879440000000     0.196690000000    -0.365565   
O324     O      0.688570000000     0.746210000000     0.201130000000    -0.362914   
O325     O      0.871490000000     0.818000000000     0.197200000000    -0.346732   
O326     O      0.736100000000     0.887230000000     0.288050000000    -0.341789   
O327     O      0.822800000000     0.691250000000     0.295210000000    -0.338915   
O328     O      0.872730000000     0.840470000000     0.293560000000    -0.341792   
O329     O      0.686450000000     0.747460000000     0.294500000000    -0.352896   
O330     O      0.738230000000     0.691520000000     0.293940000000    -0.347992   
O331     O      0.808980000000     0.880950000000     0.302200000000    -0.342008   
O332     O      0.685780000000     0.829890000000     0.290840000000    -0.357668   
O333     O      0.875630000000     0.746030000000     0.298130000000    -0.354419   
O334     O      0.780890000000     0.789000000000     0.267330000000    -0.586989   
O335     O      0.729250000000     0.559400000000     0.099730000000    -0.0990592  
O336     O      0.713810000000     0.594070000000     0.036590000000    -0.0783559  
O337     O      0.555070000000     0.735580000000     0.397530000000    -0.0813792  
O338     O      0.592250000000     0.724060000000     0.460000000000    -0.0665183  
O339     O      0.542810000000     0.854730000000     0.114390000000    -0.0771853  
O340     O      0.574320000000     0.846380000000     0.048710000000    -0.0619277  
O341     O      0.975790000000     0.767460000000     0.148920000000    -0.0790797  
O342     O      0.969410000000     0.731600000000     0.212970000000    -0.0703421  
O343     O      0.949020000000     0.904040000000     0.268620000000    -0.0475888  
O344     O      0.894040000000     0.958270000000     0.272600000000    -0.0508734  
O345     O      0.807690000000     0.586830000000     0.349630000000    -0.0949446  
O346     O      0.846960000000     0.602850000000     0.289250000000    -0.0725222  
O347     O      0.590290000000     0.848240000000     0.451140000000    -0.0605497  
O348     O      0.550570000000     0.845250000000     0.389160000000    -0.0743256  
O349     O      0.891700000000     0.959850000000     0.230910000000    -0.0509787  
O350     O      0.946820000000     0.905760000000     0.226920000000    -0.0474321  
O351     O      0.986280000000     0.953290000000     0.943270000000    -0.348283   
O352     O      0.571660000000     0.634350000000     0.956110000000    -0.33852    
O353     O      0.934880000000     0.576970000000     0.957800000000    -0.356379   
O354     O      0.624900000000     0.993020000000     0.952900000000    -0.358117   
O355     O      0.985470000000     0.634140000000     0.959560000000    -0.352474   
O356     O      0.571080000000     0.939310000000     0.951350000000    -0.34171    
O357     O      0.625460000000     0.580660000000     0.955170000000    -0.353072   
O358     O      0.925550000000     0.990860000000     0.967710000000    -0.351515   
O359     O      0.568270000000     0.939020000000     0.540380000000    -0.34604    
O360     O      0.993640000000     0.629500000000     0.551190000000    -0.364459   
O361     O      0.948070000000     0.996260000000     0.556820000000    -0.365442   
O362     O      0.625580000000     0.575450000000     0.543380000000    -0.346195   
O363     O      0.574520000000     0.631870000000     0.544100000000    -0.357921   
O364     O      0.984380000000     0.933440000000     0.534150000000    -0.347858   
O365     O      0.623150000000     0.991650000000     0.540690000000    -0.361244   
O366     O      0.938430000000     0.576840000000     0.551740000000    -0.364242   
O367     O      0.028130000000     0.037130000000     0.981380000000    -0.588966   
O368     O      0.829300000000     0.881330000000     0.704570000000    -0.349326   
O369     O      0.743980000000     0.693920000000     0.700830000000    -0.361778   
O370     O      0.879680000000     0.747090000000     0.710210000000    -0.33238    
O371     O      0.688310000000     0.824720000000     0.698770000000    -0.362675   
O372     O      0.826520000000     0.692660000000     0.707960000000    -0.359721   
O373     O      0.741510000000     0.879440000000     0.696690000000    -0.365609   
O374     O      0.688570000000     0.746210000000     0.701130000000    -0.362908   
O375     O      0.871490000000     0.818000000000     0.697200000000    -0.346732   
O376     O      0.736100000000     0.887230000000     0.788050000000    -0.341792   
O377     O      0.822800000000     0.691250000000     0.795210000000    -0.338921   
O378     O      0.872730000000     0.840470000000     0.793560000000    -0.341791   
O379     O      0.686450000000     0.747460000000     0.794500000000    -0.35288    
O380     O      0.738230000000     0.691520000000     0.793930000000    -0.347994   
O381     O      0.808980000000     0.880950000000     0.802200000000    -0.342008   
O382     O      0.685780000000     0.829890000000     0.790840000000    -0.357671   
O383     O      0.875630000000     0.746030000000     0.798130000000    -0.354419   
O384     O      0.780890000000     0.789000000000     0.767330000000    -0.586993   
O385     O      0.729250000000     0.559400000000     0.599730000000    -0.0990555  
O386     O      0.713810000000     0.594070000000     0.536590000000    -0.0783408  
O387     O      0.555070000000     0.735580000000     0.897530000000    -0.0813756  
O388     O      0.592250000000     0.724060000000     0.960000000000    -0.0664998  
O389     O      0.542810000000     0.854730000000     0.614380000000    -0.0771787  
O390     O      0.574320000000     0.846380000000     0.548710000000    -0.0619165  
O391     O      0.975790000000     0.767460000000     0.648920000000    -0.0790791  
O392     O      0.969410000000     0.731600000000     0.712970000000    -0.070343   
O393     O      0.949020000000     0.904040000000     0.768620000000    -0.0475893  
O394     O      0.894040000000     0.958270000000     0.772600000000    -0.0508737  
O395     O      0.807690000000     0.586830000000     0.849630000000    -0.0949425  
O396     O      0.846960000000     0.602850000000     0.789250000000    -0.0725226  
O397     O      0.590290000000     0.848240000000     0.951140000000    -0.0605311  
O398     O      0.550570000000     0.845250000000     0.889160000000    -0.0743226  
O399     O      0.891700000000     0.959850000000     0.730910000000    -0.0509787  
O400     O      0.946820000000     0.905760000000     0.726920000000    -0.047433   


