data_structure

_audit_creation_method RASPA-1.0
_audit_creation_date 2023-5-19
_audit_author_name 'Poobodin Mano'

_cell_length_a    40.6326
_cell_length_b    40.6476
_cell_length_c    40.4238
_cell_angle_alpha 90
_cell_angle_beta  90
_cell_angle_gamma 90
_cell_volume      66764.7

_symmetry_cell_setting          triclinic
_symmetry_space_group_name_Hall 'P 1'
_symmetry_space_group_name_H-M  'P 1'
_symmetry_Int_Tables_number     1

_symmetry_equiv_pos_as_xyz 'x,y,z'

loop_
_atom_site_label
_atom_site_type_symbol
_atom_site_fract_x
_atom_site_fract_y
_atom_site_fract_z
_atom_site_charge
C1       C      0.433260000000     0.432350000000     0.037910000000     0.344572   
C2       C      0.046960000000     0.047490000000     0.037910000000     0.34435    
C3       C      0.045480000000     0.430980000000     0.037930000000     0.344545   
C4       C      0.434750000000     0.048850000000     0.037960000000     0.344304   
C5       C      0.430360000000     0.048730000000     0.450610000000     0.350882   
C6       C      0.049840000000     0.431130000000     0.450590000000     0.35112    
C7       C      0.428400000000     0.432000000000     0.451470000000     0.350082   
C8       C      0.051810000000     0.047840000000     0.451460000000     0.350166   
C9       C      0.297690000000     0.296740000000     0.197350000000     0.344514   
C10      C      0.182530000000     0.183100000000     0.197360000000     0.344606   
C11      C      0.299070000000     0.184560000000     0.197350000000     0.344378   
C12      C      0.181150000000     0.295270000000     0.197330000000     0.344484   
C13      C      0.181300000000     0.299650000000     0.284670000000     0.351101   
C14      C      0.298910000000     0.180210000000     0.284700000000     0.351137   
C15      C      0.298040000000     0.301620000000     0.283800000000     0.350295   
C16      C      0.182170000000     0.178230000000     0.283800000000     0.350252   
C17      C      0.078760000000     0.119840000000     0.087660000000    -0.063218   
C18      C      0.104310000000     0.105440000000     0.106150000000     0.0223717  
C19      C      0.110300000000     0.071530000000     0.102490000000    -0.0630136  
C20      C      0.091530000000     0.052630000000     0.080590000000     0.0206191  
C21      C      0.066100000000     0.067120000000     0.062060000000    -0.096954   
C22      C      0.059790000000     0.100890000000     0.066040000000     0.0210793  
C23      C      0.124600000000     0.125730000000     0.129110000000     0.0223886  
C24      C      0.158530000000     0.119770000000     0.132760000000    -0.0630988  
C25      C      0.177420000000     0.138560000000     0.154660000000     0.0206374  
C26      C      0.162900000000     0.163960000000     0.173200000000    -0.0969864  
C27      C      0.129110000000     0.170240000000     0.169230000000     0.0210457  
C28      C      0.110170000000     0.151260000000     0.147600000000    -0.063192   
C29      C      0.115230000000     0.068570000000     0.385860000000    -0.0631782  
C30      C      0.109090000000     0.102210000000     0.380370000000     0.0226545  
C31      C      0.084610000000     0.117880000000     0.399290000000    -0.0636208  
C32      C      0.066240000000     0.100260000000     0.422480000000     0.0222295  
C33      C      0.072170000000     0.066610000000     0.427690000000    -0.0985853  
C34      C      0.097100000000     0.051010000000     0.409380000000     0.0217456  
C35      C      0.127810000000     0.120930000000     0.354880000000     0.0227136  
C36      C      0.161460000000     0.114800000000     0.349390000000    -0.0632221  
C37      C      0.179020000000     0.132950000000     0.325870000000     0.021727   
C38      C      0.163400000000     0.157870000000     0.307580000000    -0.0985825  
C39      C      0.129740000000     0.163780000000     0.312800000000     0.0222779  
C40      C      0.112120000000     0.145400000000     0.335980000000    -0.0636693  
C41      C      0.108360000000     0.326250000000     0.147490000000    -0.0629844  
C42      C      0.122550000000     0.351910000000     0.128970000000     0.0222875  
C43      C      0.156480000000     0.357990000000     0.132450000000    -0.0630972  
C44      C      0.175540000000     0.339380000000     0.154320000000     0.0206057  
C45      C      0.161250000000     0.313980000000     0.173030000000    -0.0968892  
C46      C      0.127500000000     0.307420000000     0.169120000000     0.0208884  
C47      C      0.102110000000     0.372360000000     0.106280000000     0.0223034  
C48      C      0.076420000000     0.358190000000     0.087780000000    -0.0630528  
C49      C      0.057590000000     0.377340000000     0.066150000000     0.0209057  
C50      C      0.064190000000     0.411070000000     0.062220000000    -0.0968709  
C51      C      0.089620000000     0.425340000000     0.080920000000     0.0205599  
C52      C      0.108220000000     0.406270000000     0.102790000000    -0.0630323  
C53      C      0.323750000000     0.121840000000     0.132480000000    -0.0630379  
C54      C      0.357680000000     0.127910000000     0.129010000000     0.0222742  
C55      C      0.371870000000     0.153570000000     0.147530000000    -0.0629503  
C56      C      0.352730000000     0.172410000000     0.169160000000     0.0208358  
C57      C      0.318980000000     0.165850000000     0.173060000000    -0.0968268  
C58      C      0.304690000000     0.140450000000     0.154350000000     0.0205555  
C59      C      0.378120000000     0.107460000000     0.106320000000     0.0222629  
C60      C      0.372010000000     0.073560000000     0.102820000000    -0.0629694  
C61      C      0.390610000000     0.054490000000     0.080950000000     0.0204816  
C62      C      0.416040000000     0.068760000000     0.062250000000    -0.0967455  
C63      C      0.422640000000     0.102490000000     0.066180000000     0.0208107  
C64      C      0.403810000000     0.121630000000     0.087820000000    -0.0629388  
C65      C      0.395590000000     0.361970000000     0.399290000000    -0.0636316  
C66      C      0.371110000000     0.377640000000     0.380370000000     0.0226523  
C67      C      0.364970000000     0.411280000000     0.385860000000    -0.0631761  
C68      C      0.383110000000     0.428840000000     0.409380000000     0.0217213  
C69      C      0.408040000000     0.413240000000     0.427690000000    -0.0985475  
C70      C      0.413960000000     0.379590000000     0.422480000000     0.0222288  
C71      C      0.352400000000     0.358920000000     0.354880000000     0.0226933  
C72      C      0.368080000000     0.334450000000     0.335970000000    -0.063643   
C73      C      0.350470000000     0.316080000000     0.312790000000     0.0223     
C74      C      0.316800000000     0.321980000000     0.307570000000    -0.098697   
C75      C      0.301190000000     0.346900000000     0.325870000000     0.0217894  
C76      C      0.318750000000     0.365050000000     0.349390000000    -0.0632204  
C77      C      0.329270000000     0.108540000000     0.336470000000    -0.0636439  
C78      C      0.354120000000     0.123440000000     0.355530000000     0.0227394  
C79      C      0.360430000000     0.157180000000     0.351100000000    -0.0636271  
C80      C      0.342650000000     0.175450000000     0.327970000000     0.0220835  
C81      C      0.317840000000     0.160560000000     0.308940000000    -0.0991675  
C82      C      0.311220000000     0.126930000000     0.313550000000     0.0220827  
C83      C      0.373590000000     0.103980000000     0.379820000000     0.022694   
C84      C      0.358670000000     0.079130000000     0.398860000000    -0.063599   
C85      C      0.377070000000     0.061060000000     0.421770000000     0.0220236  
C86      C      0.410710000000     0.067670000000     0.426380000000    -0.0990663  
C87      C      0.425610000000     0.092490000000     0.407370000000     0.0220272  
C88      C      0.407340000000     0.110270000000     0.384260000000    -0.0635512  
C89      C      0.121520000000     0.400730000000     0.398820000000    -0.0635535  
C90      C      0.106600000000     0.375890000000     0.379770000000     0.0226825  
C91      C      0.072850000000     0.369600000000     0.384210000000    -0.0635284  
C92      C      0.054580000000     0.387380000000     0.407330000000     0.0219774  
C93      C      0.069490000000     0.412190000000     0.426350000000    -0.0990534  
C94      C      0.103130000000     0.418790000000     0.421740000000     0.0219949  
C95      C      0.126060000000     0.356420000000     0.355490000000     0.0226908  
C96      C      0.150930000000     0.371320000000     0.336430000000    -0.0636183  
C97      C      0.168980000000     0.352920000000     0.313520000000     0.0220801  
C98      C      0.162360000000     0.319300000000     0.308910000000    -0.0990907  
C99      C      0.137530000000     0.304410000000     0.327930000000     0.0219881  
C100     C      0.119760000000     0.322690000000     0.351050000000    -0.0635328  
C101     C      0.370050000000     0.328570000000     0.147600000000    -0.0631521  
C102     C      0.355630000000     0.354100000000     0.129100000000     0.0223283  
C103     C      0.321700000000     0.360050000000     0.132760000000    -0.0630107  
C104     C      0.302810000000     0.341270000000     0.154650000000     0.0206608  
C105     C      0.317320000000     0.315870000000     0.173190000000    -0.0970251  
C106     C      0.351110000000     0.309590000000     0.169230000000     0.021046   
C107     C      0.375910000000     0.374390000000     0.106150000000     0.0223912  
C108     C      0.369920000000     0.408300000000     0.102490000000    -0.0630694  
C109     C      0.388700000000     0.427200000000     0.080590000000     0.0206447  
C110     C      0.414130000000     0.412710000000     0.062060000000    -0.0970353  
C111     C      0.420440000000     0.378940000000     0.066040000000     0.0211058  
C112     C      0.401470000000     0.359990000000     0.087660000000    -0.0632326  
C113     C      0.433260000000     0.432350000000     0.537910000000     0.3446     
C114     C      0.046960000000     0.047490000000     0.537910000000     0.344441   
C115     C      0.045480000000     0.430980000000     0.537940000000     0.34443    
C116     C      0.434750000000     0.048850000000     0.537960000000     0.344329   
C117     C      0.430360000000     0.048730000000     0.950610000000     0.350863   
C118     C      0.049840000000     0.431130000000     0.950590000000     0.351097   
C119     C      0.428400000000     0.432000000000     0.951470000000     0.350065   
C120     C      0.051810000000     0.047840000000     0.951460000000     0.350152   
C121     C      0.297690000000     0.296740000000     0.697350000000     0.344581   
C122     C      0.182530000000     0.183100000000     0.697360000000     0.344625   
C123     C      0.299070000000     0.184560000000     0.697350000000     0.344344   
C124     C      0.181150000000     0.295270000000     0.697320000000     0.344392   
C125     C      0.181300000000     0.299650000000     0.784670000000     0.351102   
C126     C      0.298910000000     0.180210000000     0.784700000000     0.351098   
C127     C      0.298040000000     0.301620000000     0.783800000000     0.350275   
C128     C      0.182170000000     0.178230000000     0.783800000000     0.35023    
C129     C      0.078760000000     0.119840000000     0.587660000000    -0.0632316  
C130     C      0.104310000000     0.105440000000     0.606150000000     0.0223712  
C131     C      0.110300000000     0.071530000000     0.602490000000    -0.063027   
C132     C      0.091530000000     0.052630000000     0.580590000000     0.0206302  
C133     C      0.066100000000     0.067120000000     0.562060000000    -0.0970023  
C134     C      0.059790000000     0.100890000000     0.566040000000     0.0210923  
C135     C      0.124600000000     0.125730000000     0.629110000000     0.0223829  
C136     C      0.158530000000     0.119770000000     0.632760000000    -0.0631026  
C137     C      0.177420000000     0.138560000000     0.654660000000     0.0206371  
C138     C      0.162900000000     0.163960000000     0.673200000000    -0.0969955  
C139     C      0.129110000000     0.170240000000     0.669230000000     0.021046   
C140     C      0.110170000000     0.151260000000     0.647600000000    -0.0631942  
C141     C      0.115230000000     0.068570000000     0.885860000000    -0.0632019  
C142     C      0.109090000000     0.102210000000     0.880380000000     0.0226822  
C143     C      0.084610000000     0.117880000000     0.899290000000    -0.0636508  
C144     C      0.066240000000     0.100260000000     0.922480000000     0.0222334  
C145     C      0.072170000000     0.066610000000     0.927690000000    -0.0986008  
C146     C      0.097100000000     0.051010000000     0.909380000000     0.0217501  
C147     C      0.127810000000     0.120930000000     0.854880000000     0.0226994  
C148     C      0.161460000000     0.114800000000     0.849390000000    -0.0632175  
C149     C      0.179020000000     0.132950000000     0.825870000000     0.0217181  
C150     C      0.163400000000     0.157870000000     0.807580000000    -0.0985724  
C151     C      0.129740000000     0.163780000000     0.812800000000     0.0222706  
C152     C      0.112120000000     0.145400000000     0.835980000000    -0.0636631  
C153     C      0.108360000000     0.326250000000     0.647490000000    -0.0629943  
C154     C      0.122550000000     0.351910000000     0.628970000000     0.0222884  
C155     C      0.156480000000     0.357990000000     0.632450000000    -0.0631072  
C156     C      0.175540000000     0.339380000000     0.654320000000     0.0206172  
C157     C      0.161250000000     0.313980000000     0.673030000000    -0.0969312  
C158     C      0.127500000000     0.307420000000     0.669120000000     0.0209062  
C159     C      0.102110000000     0.372360000000     0.606280000000     0.0222997  
C160     C      0.076420000000     0.358190000000     0.587780000000    -0.0630619  
C161     C      0.057590000000     0.377340000000     0.566150000000     0.0209046  
C162     C      0.064190000000     0.411070000000     0.562230000000    -0.0968777  
C163     C      0.089620000000     0.425340000000     0.580930000000     0.0205555  
C164     C      0.108220000000     0.406270000000     0.602790000000    -0.0630408  
C165     C      0.323750000000     0.121840000000     0.632480000000    -0.0630401  
C166     C      0.357680000000     0.127910000000     0.629010000000     0.0222705  
C167     C      0.371870000000     0.153570000000     0.647530000000    -0.0629488  
C168     C      0.352730000000     0.172410000000     0.669160000000     0.0208244  
C169     C      0.318980000000     0.165850000000     0.673060000000    -0.096814   
C170     C      0.304690000000     0.140450000000     0.654340000000     0.0205399  
C171     C      0.378120000000     0.107460000000     0.606320000000     0.0222489  
C172     C      0.372010000000     0.073560000000     0.602820000000    -0.0629739  
C173     C      0.390610000000     0.054490000000     0.580950000000     0.0204838  
C174     C      0.416040000000     0.068760000000     0.562250000000    -0.0967783  
C175     C      0.422640000000     0.102490000000     0.566180000000     0.0208257  
C176     C      0.403810000000     0.121630000000     0.587810000000    -0.0629483  
C177     C      0.395590000000     0.361970000000     0.899290000000    -0.0636615  
C178     C      0.371110000000     0.377640000000     0.880380000000     0.02268    
C179     C      0.364970000000     0.411280000000     0.885860000000    -0.0631997  
C180     C      0.383110000000     0.428840000000     0.909380000000     0.0217257  
C181     C      0.408040000000     0.413240000000     0.927690000000    -0.0985632  
C182     C      0.413960000000     0.379590000000     0.922480000000     0.0222324  
C183     C      0.352400000000     0.358920000000     0.854880000000     0.0226793  
C184     C      0.368080000000     0.334450000000     0.835970000000    -0.0636365  
C185     C      0.350470000000     0.316080000000     0.812790000000     0.0222923  
C186     C      0.316800000000     0.321980000000     0.807570000000    -0.098687   
C187     C      0.301190000000     0.346900000000     0.825870000000     0.0217817  
C188     C      0.318750000000     0.365050000000     0.849390000000    -0.0632161  
C189     C      0.329270000000     0.108540000000     0.836470000000    -0.0636396  
C190     C      0.354120000000     0.123440000000     0.855530000000     0.0227329  
C191     C      0.360430000000     0.157180000000     0.851100000000    -0.0636245  
C192     C      0.342650000000     0.175450000000     0.827970000000     0.0220736  
C193     C      0.317840000000     0.160560000000     0.808940000000    -0.0991506  
C194     C      0.311220000000     0.126930000000     0.813550000000     0.0220738  
C195     C      0.373590000000     0.103980000000     0.879820000000     0.0226924  
C196     C      0.358670000000     0.079130000000     0.898860000000    -0.0636063  
C197     C      0.377070000000     0.061060000000     0.921770000000     0.0220169  
C198     C      0.410710000000     0.067670000000     0.926380000000    -0.0990746  
C199     C      0.425610000000     0.092490000000     0.907370000000     0.0220225  
C200     C      0.407340000000     0.110270000000     0.884260000000    -0.0635559  
C201     C      0.121520000000     0.400730000000     0.898820000000    -0.06356    
C202     C      0.106600000000     0.375890000000     0.879770000000     0.0226796  
C203     C      0.072850000000     0.369600000000     0.884210000000    -0.0635323  
C204     C      0.054580000000     0.387380000000     0.907330000000     0.0219719  
C205     C      0.069490000000     0.412190000000     0.926350000000    -0.099061   
C206     C      0.103130000000     0.418790000000     0.921740000000     0.0219873  
C207     C      0.126060000000     0.356420000000     0.855490000000     0.0226873  
C208     C      0.150930000000     0.371320000000     0.836430000000    -0.0636181  
C209     C      0.168980000000     0.352920000000     0.813520000000     0.022079   
C210     C      0.162360000000     0.319300000000     0.808910000000    -0.0990892  
C211     C      0.137530000000     0.304410000000     0.827930000000     0.0219856  
C212     C      0.119760000000     0.322690000000     0.851050000000    -0.0635344  
C213     C      0.370050000000     0.328570000000     0.647600000000    -0.063171   
C214     C      0.355630000000     0.354100000000     0.629100000000     0.0223324  
C215     C      0.321700000000     0.360050000000     0.632760000000    -0.0630251  
C216     C      0.302810000000     0.341270000000     0.654650000000     0.0206762  
C217     C      0.317320000000     0.315870000000     0.673200000000    -0.0970968  
C218     C      0.351110000000     0.309590000000     0.669230000000     0.02108    
C219     C      0.375910000000     0.374390000000     0.606150000000     0.0223897  
C220     C      0.369920000000     0.408300000000     0.602490000000    -0.0630808  
C221     C      0.388700000000     0.427200000000     0.580590000000     0.0206508  
C222     C      0.414130000000     0.412710000000     0.562060000000    -0.0970738  
C223     C      0.420440000000     0.378940000000     0.566040000000     0.0211211  
C224     C      0.401470000000     0.359990000000     0.587660000000    -0.0632507  
C225     C      0.433260000000     0.932340000000     0.037910000000     0.344518   
C226     C      0.046960000000     0.547490000000     0.037910000000     0.344343   
C227     C      0.045480000000     0.930980000000     0.037930000000     0.344401   
C228     C      0.434750000000     0.548850000000     0.037960000000     0.344307   
C229     C      0.430360000000     0.548730000000     0.450610000000     0.350885   
C230     C      0.049840000000     0.931130000000     0.450590000000     0.350996   
C231     C      0.428400000000     0.932000000000     0.451470000000     0.350212   
C232     C      0.051810000000     0.547840000000     0.451460000000     0.350172   
C233     C      0.297690000000     0.796740000000     0.197350000000     0.344518   
C234     C      0.182530000000     0.683100000000     0.197360000000     0.344605   
C235     C      0.299070000000     0.684560000000     0.197350000000     0.344378   
C236     C      0.181150000000     0.795270000000     0.197330000000     0.344485   
C237     C      0.181300000000     0.799650000000     0.284670000000     0.351101   
C238     C      0.298910000000     0.680200000000     0.284700000000     0.351075   
C239     C      0.298040000000     0.801620000000     0.283800000000     0.350277   
C240     C      0.182170000000     0.678230000000     0.283800000000     0.350253   
C241     C      0.078760000000     0.619840000000     0.087660000000    -0.063195   
C242     C      0.104310000000     0.605440000000     0.106150000000     0.0223645  
C243     C      0.110300000000     0.571530000000     0.102490000000    -0.0630088  
C244     C      0.091530000000     0.552630000000     0.080590000000     0.0206023  
C245     C      0.066100000000     0.567120000000     0.062060000000    -0.0969256  
C246     C      0.059790000000     0.600900000000     0.066040000000     0.0210267  
C247     C      0.124600000000     0.625730000000     0.129110000000     0.0223726  
C248     C      0.158530000000     0.619780000000     0.132760000000    -0.0630575  
C249     C      0.177420000000     0.638560000000     0.154660000000     0.020626   
C250     C      0.162900000000     0.663960000000     0.173200000000    -0.096981   
C251     C      0.129110000000     0.670240000000     0.169230000000     0.0210396  
C252     C      0.110170000000     0.651260000000     0.147600000000    -0.0631842  
C253     C      0.115230000000     0.568570000000     0.385860000000    -0.0631832  
C254     C      0.109090000000     0.602210000000     0.380370000000     0.0226543  
C255     C      0.084610000000     0.617880000000     0.399290000000    -0.0636229  
C256     C      0.066240000000     0.600260000000     0.422480000000     0.022231   
C257     C      0.072170000000     0.566610000000     0.427690000000    -0.0985931  
C258     C      0.097100000000     0.551010000000     0.409380000000     0.0217448  
C259     C      0.127810000000     0.620930000000     0.354880000000     0.0227115  
C260     C      0.161460000000     0.614800000000     0.349390000000    -0.0632228  
C261     C      0.179020000000     0.632950000000     0.325870000000     0.0217253  
C262     C      0.163400000000     0.657870000000     0.307580000000    -0.0985828  
C263     C      0.129740000000     0.663780000000     0.312800000000     0.0222772  
C264     C      0.112120000000     0.645400000000     0.335980000000    -0.0636697  
C265     C      0.108360000000     0.826250000000     0.147490000000    -0.0629924  
C266     C      0.122550000000     0.851910000000     0.128970000000     0.0223032  
C267     C      0.156480000000     0.857990000000     0.132450000000    -0.0631057  
C268     C      0.175540000000     0.839380000000     0.154320000000     0.0206085  
C269     C      0.161250000000     0.813980000000     0.173030000000    -0.0968924  
C270     C      0.127500000000     0.807420000000     0.169120000000     0.020892   
C271     C      0.102110000000     0.872360000000     0.106280000000     0.0222614  
C272     C      0.076420000000     0.858190000000     0.087780000000    -0.0629702  
C273     C      0.057590000000     0.877340000000     0.066150000000     0.020846   
C274     C      0.064190000000     0.911070000000     0.062220000000    -0.0967944  
C275     C      0.089620000000     0.925340000000     0.080920000000     0.0205153  
C276     C      0.108220000000     0.906270000000     0.102790000000    -0.0630046  
C277     C      0.323750000000     0.621840000000     0.132480000000    -0.0630386  
C278     C      0.357680000000     0.627910000000     0.129010000000     0.0222724  
C279     C      0.371870000000     0.653570000000     0.147530000000    -0.0629507  
C280     C      0.352730000000     0.672410000000     0.169160000000     0.0208351  
C281     C      0.318980000000     0.665850000000     0.173060000000    -0.0968277  
C282     C      0.304690000000     0.640450000000     0.154350000000     0.0205541  
C283     C      0.378120000000     0.607460000000     0.106320000000     0.0222626  
C284     C      0.372010000000     0.573560000000     0.102820000000    -0.0629741  
C285     C      0.390610000000     0.554490000000     0.080950000000     0.0204806  
C286     C      0.416040000000     0.568760000000     0.062250000000    -0.0967524  
C287     C      0.422640000000     0.602490000000     0.066180000000     0.020812   
C288     C      0.403810000000     0.621630000000     0.087820000000    -0.0629407  
C289     C      0.395590000000     0.861970000000     0.399290000000    -0.0636519  
C290     C      0.371110000000     0.877640000000     0.380370000000     0.0226716  
C291     C      0.364970000000     0.911280000000     0.385860000000    -0.0631991  
C292     C      0.383110000000     0.928840000000     0.409380000000     0.0217504  
C293     C      0.408040000000     0.913240000000     0.427690000000    -0.0986158  
C294     C      0.413960000000     0.879590000000     0.422480000000     0.0222586  
C295     C      0.352400000000     0.858920000000     0.354880000000     0.0226649  
C296     C      0.368080000000     0.834450000000     0.335970000000    -0.0635975  
C297     C      0.350470000000     0.816070000000     0.312790000000     0.0222335  
C298     C      0.316800000000     0.821980000000     0.307570000000    -0.0986445  
C299     C      0.301190000000     0.846910000000     0.325870000000     0.0217426  
C300     C      0.318750000000     0.865050000000     0.349390000000    -0.0631933  
C301     C      0.329270000000     0.608540000000     0.336470000000    -0.0636513  
C302     C      0.354120000000     0.623440000000     0.355530000000     0.0227444  
C303     C      0.360430000000     0.657180000000     0.351100000000    -0.0636382  
C304     C      0.342650000000     0.675450000000     0.327970000000     0.0221078  
C305     C      0.317840000000     0.660560000000     0.308940000000    -0.0992083  
C306     C      0.311220000000     0.626930000000     0.313550000000     0.0220926  
C307     C      0.373590000000     0.603980000000     0.379820000000     0.0226909  
C308     C      0.358670000000     0.579130000000     0.398860000000    -0.0636022  
C309     C      0.377070000000     0.561060000000     0.421770000000     0.0220218  
C310     C      0.410710000000     0.567670000000     0.426380000000    -0.0990738  
C311     C      0.425610000000     0.592490000000     0.407370000000     0.0220269  
C312     C      0.407340000000     0.610270000000     0.384260000000    -0.0635527  
C313     C      0.121520000000     0.900730000000     0.398820000000    -0.0635425  
C314     C      0.106600000000     0.875890000000     0.379770000000     0.0226714  
C315     C      0.072850000000     0.869600000000     0.384210000000    -0.063516   
C316     C      0.054580000000     0.887380000000     0.407330000000     0.0219513  
C317     C      0.069490000000     0.912190000000     0.426350000000    -0.098998   
C318     C      0.103130000000     0.918790000000     0.421740000000     0.0219658  
C319     C      0.126060000000     0.856420000000     0.355490000000     0.0226935  
C320     C      0.150930000000     0.871320000000     0.336430000000    -0.0636211  
C321     C      0.168980000000     0.852920000000     0.313520000000     0.0220797  
C322     C      0.162360000000     0.819300000000     0.308910000000    -0.0990917  
C323     C      0.137530000000     0.804410000000     0.327930000000     0.0219891  
C324     C      0.119760000000     0.822690000000     0.351050000000    -0.0635345  
C325     C      0.370050000000     0.828570000000     0.147600000000    -0.0631625  
C326     C      0.355630000000     0.854100000000     0.129100000000     0.0223465  
C327     C      0.321700000000     0.860050000000     0.132760000000    -0.0630603  
C328     C      0.302810000000     0.841270000000     0.154650000000     0.0206818  
C329     C      0.317320000000     0.815870000000     0.173190000000    -0.0970356  
C330     C      0.351110000000     0.809590000000     0.169230000000     0.0210542  
C331     C      0.375910000000     0.874390000000     0.106150000000     0.0223887  
C332     C      0.369920000000     0.908300000000     0.102490000000    -0.0630811  
C333     C      0.388700000000     0.927200000000     0.080590000000     0.0206664  
C334     C      0.414130000000     0.912710000000     0.062060000000    -0.0970824  
C335     C      0.420440000000     0.878940000000     0.066040000000     0.0211166  
C336     C      0.401470000000     0.859990000000     0.087660000000    -0.0632368  
C337     C      0.433260000000     0.932340000000     0.537910000000     0.344545   
C338     C      0.046960000000     0.547490000000     0.537910000000     0.344434   
C339     C      0.045480000000     0.930980000000     0.537940000000     0.344286   
C340     C      0.434750000000     0.548850000000     0.537960000000     0.344332   
C341     C      0.430360000000     0.548730000000     0.950610000000     0.350867   
C342     C      0.049840000000     0.931130000000     0.950590000000     0.350973   
C343     C      0.428400000000     0.932000000000     0.951470000000     0.350195   
C344     C      0.051810000000     0.547840000000     0.951460000000     0.350157   
C345     C      0.297690000000     0.796740000000     0.697350000000     0.344585   
C346     C      0.182530000000     0.683100000000     0.697360000000     0.344623   
C347     C      0.299070000000     0.684560000000     0.697350000000     0.344344   
C348     C      0.181150000000     0.795270000000     0.697320000000     0.344393   
C349     C      0.181300000000     0.799650000000     0.784670000000     0.351103   
C350     C      0.298910000000     0.680200000000     0.784700000000     0.351036   
C351     C      0.298040000000     0.801620000000     0.783800000000     0.350257   
C352     C      0.182170000000     0.678230000000     0.783800000000     0.35023    
C353     C      0.078760000000     0.619840000000     0.587660000000    -0.0632087  
C354     C      0.104310000000     0.605440000000     0.606150000000     0.022364   
C355     C      0.110300000000     0.571530000000     0.602490000000    -0.0630222  
C356     C      0.091530000000     0.552630000000     0.580590000000     0.0206133  
C357     C      0.066100000000     0.567120000000     0.562060000000    -0.0969739  
C358     C      0.059790000000     0.600900000000     0.566040000000     0.0210396  
C359     C      0.124600000000     0.625730000000     0.629110000000     0.0223669  
C360     C      0.158530000000     0.619780000000     0.632760000000    -0.0630613  
C361     C      0.177420000000     0.638560000000     0.654660000000     0.0206257  
C362     C      0.162900000000     0.663960000000     0.673200000000    -0.0969902  
C363     C      0.129110000000     0.670240000000     0.669230000000     0.02104    
C364     C      0.110170000000     0.651260000000     0.647600000000    -0.0631864  
C365     C      0.115230000000     0.568570000000     0.885860000000    -0.0632069  
C366     C      0.109090000000     0.602210000000     0.880380000000     0.022682   
C367     C      0.084610000000     0.617880000000     0.899290000000    -0.0636529  
C368     C      0.066240000000     0.600260000000     0.922480000000     0.022235   
C369     C      0.072170000000     0.566610000000     0.927690000000    -0.0986087  
C370     C      0.097100000000     0.551010000000     0.909380000000     0.0217493  
C371     C      0.127810000000     0.620930000000     0.854880000000     0.0226974  
C372     C      0.161460000000     0.614800000000     0.849390000000    -0.0632183  
C373     C      0.179020000000     0.632950000000     0.825870000000     0.0217165  
C374     C      0.163400000000     0.657870000000     0.807580000000    -0.0985728  
C375     C      0.129740000000     0.663780000000     0.812800000000     0.0222698  
C376     C      0.112120000000     0.645400000000     0.835980000000    -0.0636634  
C377     C      0.108360000000     0.826250000000     0.647490000000    -0.0630023  
C378     C      0.122550000000     0.851910000000     0.628970000000     0.0223041  
C379     C      0.156480000000     0.857990000000     0.632450000000    -0.0631158  
C380     C      0.175540000000     0.839380000000     0.654320000000     0.02062    
C381     C      0.161250000000     0.813980000000     0.673030000000    -0.0969345  
C382     C      0.127500000000     0.807420000000     0.669120000000     0.0209098  
C383     C      0.102110000000     0.872360000000     0.606280000000     0.0222577  
C384     C      0.076420000000     0.858190000000     0.587780000000    -0.0629792  
C385     C      0.057590000000     0.877340000000     0.566150000000     0.0208449  
C386     C      0.064190000000     0.911070000000     0.562230000000    -0.0968012  
C387     C      0.089620000000     0.925340000000     0.580930000000     0.0205109  
C388     C      0.108220000000     0.906270000000     0.602790000000    -0.0630132  
C389     C      0.323750000000     0.621840000000     0.632480000000    -0.0630408  
C390     C      0.357680000000     0.627910000000     0.629010000000     0.0222687  
C391     C      0.371870000000     0.653570000000     0.647530000000    -0.0629491  
C392     C      0.352730000000     0.672410000000     0.669160000000     0.0208238  
C393     C      0.318980000000     0.665850000000     0.673060000000    -0.0968149  
C394     C      0.304690000000     0.640450000000     0.654340000000     0.0205384  
C395     C      0.378120000000     0.607460000000     0.606320000000     0.0222487  
C396     C      0.372010000000     0.573560000000     0.602820000000    -0.0629786  
C397     C      0.390610000000     0.554490000000     0.580950000000     0.0204828  
C398     C      0.416040000000     0.568760000000     0.562250000000    -0.0967851  
C399     C      0.422640000000     0.602490000000     0.566180000000     0.0208269  
C400     C      0.403810000000     0.621630000000     0.587810000000    -0.0629502  
C401     C      0.395590000000     0.861970000000     0.899290000000    -0.0636818  
C402     C      0.371110000000     0.877640000000     0.880380000000     0.0226993  
C403     C      0.364970000000     0.911280000000     0.885860000000    -0.0632227  
C404     C      0.383110000000     0.928840000000     0.909380000000     0.0217548  
C405     C      0.408040000000     0.913240000000     0.927690000000    -0.0986315  
C406     C      0.413960000000     0.879590000000     0.922480000000     0.0222622  
C407     C      0.352400000000     0.858920000000     0.854880000000     0.022651   
C408     C      0.368080000000     0.834450000000     0.835970000000    -0.063591   
C409     C      0.350470000000     0.816070000000     0.812790000000     0.0222259  
C410     C      0.316800000000     0.821980000000     0.807570000000    -0.0986345  
C411     C      0.301190000000     0.846910000000     0.825870000000     0.021735   
C412     C      0.318750000000     0.865050000000     0.849390000000    -0.063189   
C413     C      0.329270000000     0.608540000000     0.836470000000    -0.063647   
C414     C      0.354120000000     0.623440000000     0.855530000000     0.0227378  
C415     C      0.360430000000     0.657180000000     0.851100000000    -0.0636356  
C416     C      0.342650000000     0.675450000000     0.827970000000     0.0220978  
C417     C      0.317840000000     0.660560000000     0.808940000000    -0.0991914  
C418     C      0.311220000000     0.626930000000     0.813550000000     0.0220836  
C419     C      0.373590000000     0.603980000000     0.879820000000     0.0226893  
C420     C      0.358670000000     0.579130000000     0.898860000000    -0.0636095  
C421     C      0.377070000000     0.561060000000     0.921770000000     0.0220151  
C422     C      0.410710000000     0.567670000000     0.926380000000    -0.0990821  
C423     C      0.425610000000     0.592490000000     0.907370000000     0.0220221  
C424     C      0.407340000000     0.610270000000     0.884260000000    -0.0635574  
C425     C      0.121520000000     0.900730000000     0.898820000000    -0.063549   
C426     C      0.106600000000     0.875890000000     0.879770000000     0.0226684  
C427     C      0.072850000000     0.869600000000     0.884210000000    -0.0635199  
C428     C      0.054580000000     0.887380000000     0.907330000000     0.0219459  
C429     C      0.069490000000     0.912190000000     0.926350000000    -0.0990056  
C430     C      0.103130000000     0.918790000000     0.921740000000     0.0219581  
C431     C      0.126060000000     0.856420000000     0.855490000000     0.0226899  
C432     C      0.150930000000     0.871320000000     0.836430000000    -0.063621   
C433     C      0.168980000000     0.852920000000     0.813520000000     0.0220786  
C434     C      0.162360000000     0.819300000000     0.808910000000    -0.0990902  
C435     C      0.137530000000     0.804410000000     0.827930000000     0.0219865  
C436     C      0.119760000000     0.822690000000     0.851050000000    -0.063536   
C437     C      0.370050000000     0.828570000000     0.647600000000    -0.0631814  
C438     C      0.355630000000     0.854100000000     0.629100000000     0.0223506  
C439     C      0.321700000000     0.860050000000     0.632760000000    -0.0630746  
C440     C      0.302810000000     0.841270000000     0.654650000000     0.0206971  
C441     C      0.317320000000     0.815870000000     0.673200000000    -0.0971073  
C442     C      0.351110000000     0.809590000000     0.669230000000     0.0210882  
C443     C      0.375910000000     0.874390000000     0.606150000000     0.0223873  
C444     C      0.369920000000     0.908300000000     0.602490000000    -0.0630925  
C445     C      0.388700000000     0.927200000000     0.580590000000     0.0206725  
C446     C      0.414130000000     0.912710000000     0.562060000000    -0.0971208  
C447     C      0.420440000000     0.878940000000     0.566040000000     0.0211319  
C448     C      0.401470000000     0.859990000000     0.587660000000    -0.0632549  
C449     C      0.933260000000     0.432350000000     0.037910000000     0.344596   
C450     C      0.546960000000     0.047490000000     0.037910000000     0.344536   
C451     C      0.545480000000     0.430980000000     0.037930000000     0.344547   
C452     C      0.934750000000     0.048850000000     0.037960000000     0.344327   
C453     C      0.930360000000     0.048730000000     0.450610000000     0.3509     
C454     C      0.549840000000     0.431130000000     0.450590000000     0.351121   
C455     C      0.928400000000     0.432000000000     0.451470000000     0.350109   
C456     C      0.551810000000     0.047840000000     0.451460000000     0.350171   
C457     C      0.797690000000     0.296740000000     0.197350000000     0.344514   
C458     C      0.682530000000     0.183100000000     0.197360000000     0.344604   
C459     C      0.799070000000     0.184560000000     0.197350000000     0.344378   
C460     C      0.681150000000     0.295270000000     0.197330000000     0.344621   
C461     C      0.681290000000     0.299650000000     0.284670000000     0.351048   
C462     C      0.798910000000     0.180210000000     0.284700000000     0.351138   
C463     C      0.798040000000     0.301620000000     0.283800000000     0.350254   
C464     C      0.682170000000     0.178230000000     0.283800000000     0.350256   
C465     C      0.578760000000     0.119840000000     0.087660000000    -0.06324    
C466     C      0.604310000000     0.105440000000     0.106150000000     0.0223821  
C467     C      0.610300000000     0.071530000000     0.102490000000    -0.0630321  
C468     C      0.591530000000     0.052630000000     0.080590000000     0.0206508  
C469     C      0.566100000000     0.067120000000     0.062060000000    -0.0970314  
C470     C      0.559790000000     0.100890000000     0.066040000000     0.0211143  
C471     C      0.624600000000     0.125730000000     0.129110000000     0.0223888  
C472     C      0.658520000000     0.119770000000     0.132760000000    -0.0630657  
C473     C      0.677420000000     0.138560000000     0.154660000000     0.0206055  
C474     C      0.662900000000     0.163960000000     0.173200000000    -0.0969737  
C475     C      0.629110000000     0.170240000000     0.169230000000     0.0210386  
C476     C      0.610170000000     0.151260000000     0.147600000000    -0.0631914  
C477     C      0.615230000000     0.068570000000     0.385860000000    -0.0631807  
C478     C      0.609090000000     0.102210000000     0.380370000000     0.0226539  
C479     C      0.584610000000     0.117880000000     0.399290000000    -0.0636249  
C480     C      0.566240000000     0.100260000000     0.422480000000     0.0222286  
C481     C      0.572170000000     0.066610000000     0.427690000000    -0.098592   
C482     C      0.597100000000     0.051010000000     0.409380000000     0.0217458  
C483     C      0.627810000000     0.120930000000     0.354880000000     0.022712   
C484     C      0.661460000000     0.114800000000     0.349390000000    -0.0632222  
C485     C      0.679020000000     0.132950000000     0.325870000000     0.0217273  
C486     C      0.663400000000     0.157870000000     0.307580000000    -0.0985842  
C487     C      0.629740000000     0.163780000000     0.312800000000     0.0222771  
C488     C      0.612120000000     0.145400000000     0.335980000000    -0.0636708  
C489     C      0.608360000000     0.326250000000     0.147490000000    -0.0630012  
C490     C      0.622550000000     0.351910000000     0.128970000000     0.0222971  
C491     C      0.656480000000     0.357990000000     0.132450000000    -0.0631129  
C492     C      0.675540000000     0.339380000000     0.154320000000     0.0206355  
C493     C      0.661250000000     0.313980000000     0.173030000000    -0.0969551  
C494     C      0.627500000000     0.307420000000     0.169120000000     0.0209153  
C495     C      0.602110000000     0.372360000000     0.106280000000     0.0222983  
C496     C      0.576420000000     0.358190000000     0.087780000000    -0.0630552  
C497     C      0.557590000000     0.377340000000     0.066150000000     0.0209034  
C498     C      0.564190000000     0.411070000000     0.062220000000    -0.096878   
C499     C      0.589620000000     0.425340000000     0.080920000000     0.0205587  
C500     C      0.608220000000     0.406270000000     0.102790000000    -0.0630329  
C501     C      0.823750000000     0.121840000000     0.132480000000    -0.0630338  
C502     C      0.857680000000     0.127910000000     0.129010000000     0.0222649  
C503     C      0.871870000000     0.153570000000     0.147530000000    -0.0629482  
C504     C      0.852730000000     0.172410000000     0.169160000000     0.0208327  
C505     C      0.818980000000     0.165850000000     0.173060000000    -0.0968256  
C506     C      0.804690000000     0.140450000000     0.154350000000     0.0205533  
C507     C      0.878130000000     0.107460000000     0.106320000000     0.0222873  
C508     C      0.872010000000     0.073560000000     0.102820000000    -0.0629862  
C509     C      0.890610000000     0.054490000000     0.080950000000     0.0204919  
C510     C      0.916040000000     0.068760000000     0.062250000000    -0.0967649  
C511     C      0.922640000000     0.102490000000     0.066180000000     0.0208223  
C512     C      0.903810000000     0.121630000000     0.087820000000    -0.0629651  
C513     C      0.895590000000     0.361970000000     0.399290000000    -0.0636391  
C514     C      0.871110000000     0.377640000000     0.380370000000     0.022657   
C515     C      0.864970000000     0.411280000000     0.385860000000    -0.0631827  
C516     C      0.883110000000     0.428840000000     0.409380000000     0.0217274  
C517     C      0.908040000000     0.413240000000     0.427690000000    -0.0985638  
C518     C      0.913960000000     0.379590000000     0.422480000000     0.0222328  
C519     C      0.852400000000     0.358920000000     0.354880000000     0.0226824  
C520     C      0.868080000000     0.334450000000     0.335970000000    -0.0636426  
C521     C      0.850470000000     0.316080000000     0.312790000000     0.0223058  
C522     C      0.816810000000     0.321980000000     0.307570000000    -0.0986449  
C523     C      0.801190000000     0.346900000000     0.325870000000     0.0217393  
C524     C      0.818750000000     0.365050000000     0.349390000000    -0.0631972  
C525     C      0.829270000000     0.108540000000     0.336470000000    -0.0636445  
C526     C      0.854120000000     0.123440000000     0.355530000000     0.0227382  
C527     C      0.860430000000     0.157180000000     0.351100000000    -0.0636277  
C528     C      0.842650000000     0.175450000000     0.327970000000     0.0220822  
C529     C      0.817840000000     0.160560000000     0.308940000000    -0.099168   
C530     C      0.811220000000     0.126930000000     0.313550000000     0.0220824  
C531     C      0.873590000000     0.103980000000     0.379820000000     0.0226944  
C532     C      0.858670000000     0.079130000000     0.398860000000    -0.0635972  
C533     C      0.877070000000     0.061060000000     0.421770000000     0.0220173  
C534     C      0.910710000000     0.067670000000     0.426380000000    -0.0990537  
C535     C      0.925610000000     0.092490000000     0.407370000000     0.0219658  
C536     C      0.907330000000     0.110270000000     0.384260000000    -0.0635092  
C537     C      0.621520000000     0.400730000000     0.398820000000    -0.06354    
C538     C      0.606610000000     0.375890000000     0.379770000000     0.0226463  
C539     C      0.572850000000     0.369600000000     0.384210000000    -0.0635039  
C540     C      0.554580000000     0.387380000000     0.407330000000     0.021963   
C541     C      0.569490000000     0.412190000000     0.426350000000    -0.0990525  
C542     C      0.603130000000     0.418790000000     0.421740000000     0.0219881  
C543     C      0.626070000000     0.356420000000     0.355490000000     0.022735   
C544     C      0.650920000000     0.371320000000     0.336430000000    -0.0636378  
C545     C      0.668980000000     0.352920000000     0.313520000000     0.0220909  
C546     C      0.662360000000     0.319300000000     0.308910000000    -0.0991328  
C547     C      0.637530000000     0.304410000000     0.327930000000     0.0220066  
C548     C      0.619760000000     0.322690000000     0.351050000000    -0.0635586  
C549     C      0.870050000000     0.328570000000     0.147600000000    -0.0631525  
C550     C      0.855630000000     0.354100000000     0.129100000000     0.022326   
C551     C      0.821700000000     0.360050000000     0.132760000000    -0.0630101  
C552     C      0.802810000000     0.341270000000     0.154650000000     0.0206603  
C553     C      0.817320000000     0.315870000000     0.173190000000    -0.0970249  
C554     C      0.851110000000     0.309590000000     0.169230000000     0.0210443  
C555     C      0.875910000000     0.374390000000     0.106150000000     0.0223924  
C556     C      0.869920000000     0.408300000000     0.102490000000    -0.0630742  
C557     C      0.888700000000     0.427200000000     0.080590000000     0.0206494  
C558     C      0.914130000000     0.412710000000     0.062060000000    -0.0970505  
C559     C      0.920440000000     0.378940000000     0.066040000000     0.0211085  
C560     C      0.901470000000     0.359990000000     0.087660000000    -0.0632385  
C561     C      0.933260000000     0.432350000000     0.537910000000     0.344623   
C562     C      0.546960000000     0.047490000000     0.537910000000     0.344627   
C563     C      0.545480000000     0.430980000000     0.537940000000     0.344432   
C564     C      0.934750000000     0.048850000000     0.537960000000     0.344353   
C565     C      0.930360000000     0.048730000000     0.950610000000     0.350882   
C566     C      0.549840000000     0.431130000000     0.950590000000     0.351099   
C567     C      0.928400000000     0.432000000000     0.951470000000     0.350092   
C568     C      0.551810000000     0.047840000000     0.951460000000     0.350156   
C569     C      0.797690000000     0.296740000000     0.697350000000     0.344581   
C570     C      0.682530000000     0.183100000000     0.697360000000     0.344623   
C571     C      0.799070000000     0.184560000000     0.697350000000     0.344344   
C572     C      0.681150000000     0.295270000000     0.697320000000     0.344529   
C573     C      0.681290000000     0.299650000000     0.784670000000     0.351049   
C574     C      0.798910000000     0.180210000000     0.784700000000     0.351098   
C575     C      0.798040000000     0.301620000000     0.783800000000     0.350234   
C576     C      0.682170000000     0.178230000000     0.783800000000     0.350233   
C577     C      0.578760000000     0.119840000000     0.587660000000    -0.0632537  
C578     C      0.604310000000     0.105440000000     0.606150000000     0.0223816  
C579     C      0.610300000000     0.071530000000     0.602490000000    -0.0630454  
C580     C      0.591530000000     0.052630000000     0.580590000000     0.0206619  
C581     C      0.566100000000     0.067120000000     0.562060000000    -0.0970798  
C582     C      0.559790000000     0.100890000000     0.566040000000     0.0211273  
C583     C      0.624600000000     0.125730000000     0.629110000000     0.0223831  
C584     C      0.658520000000     0.119770000000     0.632760000000    -0.0630695  
C585     C      0.677420000000     0.138560000000     0.654660000000     0.0206051  
C586     C      0.662900000000     0.163960000000     0.673200000000    -0.0969829  
C587     C      0.629110000000     0.170240000000     0.669230000000     0.0210389  
C588     C      0.610170000000     0.151260000000     0.647600000000    -0.0631935  
C589     C      0.615230000000     0.068570000000     0.885860000000    -0.0632044  
C590     C      0.609090000000     0.102210000000     0.880380000000     0.0226816  
C591     C      0.584610000000     0.117880000000     0.899290000000    -0.063655   
C592     C      0.566240000000     0.100260000000     0.922480000000     0.0222326  
C593     C      0.572170000000     0.066610000000     0.927690000000    -0.0986076  
C594     C      0.597100000000     0.051010000000     0.909380000000     0.0217503  
C595     C      0.627810000000     0.120930000000     0.854880000000     0.0226978  
C596     C      0.661460000000     0.114800000000     0.849390000000    -0.0632176  
C597     C      0.679020000000     0.132950000000     0.825870000000     0.0217185  
C598     C      0.663400000000     0.157870000000     0.807580000000    -0.0985742  
C599     C      0.629740000000     0.163780000000     0.812800000000     0.0222697  
C600     C      0.612120000000     0.145400000000     0.835980000000    -0.0636645  
C601     C      0.608360000000     0.326250000000     0.647490000000    -0.0630111  
C602     C      0.622550000000     0.351910000000     0.628970000000     0.022298   
C603     C      0.656480000000     0.357990000000     0.632450000000    -0.0631229  
C604     C      0.675540000000     0.339380000000     0.654320000000     0.020647   
C605     C      0.661250000000     0.313980000000     0.673030000000    -0.0969972  
C606     C      0.627500000000     0.307420000000     0.669120000000     0.0209332  
C607     C      0.602110000000     0.372360000000     0.606280000000     0.0222945  
C608     C      0.576420000000     0.358190000000     0.587780000000    -0.0630643  
C609     C      0.557590000000     0.377340000000     0.566150000000     0.0209022  
C610     C      0.564190000000     0.411070000000     0.562230000000    -0.0968848  
C611     C      0.589620000000     0.425340000000     0.580930000000     0.0205543  
C612     C      0.608220000000     0.406270000000     0.602790000000    -0.0630415  
C613     C      0.823750000000     0.121840000000     0.632480000000    -0.063036   
C614     C      0.857680000000     0.127910000000     0.629010000000     0.0222612  
C615     C      0.871870000000     0.153570000000     0.647530000000    -0.0629466  
C616     C      0.852730000000     0.172410000000     0.669160000000     0.0208214  
C617     C      0.818980000000     0.165850000000     0.673060000000    -0.0968129  
C618     C      0.804690000000     0.140450000000     0.654340000000     0.0205377  
C619     C      0.878130000000     0.107460000000     0.606320000000     0.0222734  
C620     C      0.872010000000     0.073560000000     0.602820000000    -0.0629907  
C621     C      0.890610000000     0.054490000000     0.580950000000     0.020494   
C622     C      0.916040000000     0.068760000000     0.562250000000    -0.0967977  
C623     C      0.922640000000     0.102490000000     0.566180000000     0.0208373  
C624     C      0.903810000000     0.121630000000     0.587810000000    -0.0629746  
C625     C      0.895590000000     0.361970000000     0.899290000000    -0.063669   
C626     C      0.871110000000     0.377640000000     0.880380000000     0.0226847  
C627     C      0.864970000000     0.411280000000     0.885860000000    -0.0632063  
C628     C      0.883110000000     0.428840000000     0.909380000000     0.0217318  
C629     C      0.908040000000     0.413240000000     0.927690000000    -0.0985795  
C630     C      0.913960000000     0.379590000000     0.922480000000     0.0222363  
C631     C      0.852400000000     0.358920000000     0.854880000000     0.0226684  
C632     C      0.868080000000     0.334450000000     0.835970000000    -0.0636361  
C633     C      0.850470000000     0.316080000000     0.812790000000     0.0222981  
C634     C      0.816810000000     0.321980000000     0.807570000000    -0.0986349  
C635     C      0.801190000000     0.346900000000     0.825870000000     0.0217317  
C636     C      0.818750000000     0.365050000000     0.849390000000    -0.0631929  
C637     C      0.829270000000     0.108540000000     0.836470000000    -0.0636403  
C638     C      0.854120000000     0.123440000000     0.855530000000     0.0227316  
C639     C      0.860430000000     0.157180000000     0.851100000000    -0.0636251  
C640     C      0.842650000000     0.175450000000     0.827970000000     0.0220723  
C641     C      0.817840000000     0.160560000000     0.808940000000    -0.0991511  
C642     C      0.811220000000     0.126930000000     0.813550000000     0.0220735  
C643     C      0.873590000000     0.103980000000     0.879820000000     0.0226928  
C644     C      0.858670000000     0.079130000000     0.898860000000    -0.0636045  
C645     C      0.877070000000     0.061060000000     0.921770000000     0.0220106  
C646     C      0.910710000000     0.067670000000     0.926380000000    -0.0990619  
C647     C      0.925610000000     0.092490000000     0.907370000000     0.0219611  
C648     C      0.907330000000     0.110270000000     0.884260000000    -0.0635139  
C649     C      0.621520000000     0.400730000000     0.898820000000    -0.0635465  
C650     C      0.606610000000     0.375890000000     0.879770000000     0.0226433  
C651     C      0.572850000000     0.369600000000     0.884210000000    -0.0635078  
C652     C      0.554580000000     0.387380000000     0.907330000000     0.0219575  
C653     C      0.569490000000     0.412190000000     0.926350000000    -0.09906    
C654     C      0.603130000000     0.418790000000     0.921740000000     0.0219805  
C655     C      0.626070000000     0.356420000000     0.855490000000     0.0227314  
C656     C      0.650920000000     0.371320000000     0.836430000000    -0.0636376  
C657     C      0.668980000000     0.352920000000     0.813520000000     0.0220898  
C658     C      0.662360000000     0.319300000000     0.808910000000    -0.0991313  
C659     C      0.637530000000     0.304410000000     0.827930000000     0.022004   
C660     C      0.619760000000     0.322690000000     0.851050000000    -0.0635602  
C661     C      0.870050000000     0.328570000000     0.647600000000    -0.0631714  
C662     C      0.855630000000     0.354100000000     0.629100000000     0.0223301  
C663     C      0.821700000000     0.360050000000     0.632760000000    -0.0630245  
C664     C      0.802810000000     0.341270000000     0.654650000000     0.0206756  
C665     C      0.817320000000     0.315870000000     0.673200000000    -0.0970967  
C666     C      0.851110000000     0.309590000000     0.669230000000     0.0210783  
C667     C      0.875910000000     0.374390000000     0.606150000000     0.022391   
C668     C      0.869920000000     0.408300000000     0.602490000000    -0.0630856  
C669     C      0.888700000000     0.427200000000     0.580590000000     0.0206555  
C670     C      0.914130000000     0.412710000000     0.562060000000    -0.0970889  
C671     C      0.920440000000     0.378940000000     0.566040000000     0.0211238  
C672     C      0.901470000000     0.359990000000     0.587660000000    -0.0632566  
C673     C      0.933260000000     0.932340000000     0.037910000000     0.344542   
C674     C      0.546960000000     0.547490000000     0.037910000000     0.344529   
C675     C      0.545480000000     0.930980000000     0.037930000000     0.344403   
C676     C      0.934750000000     0.548850000000     0.037960000000     0.34433    
C677     C      0.930360000000     0.548730000000     0.450610000000     0.350904   
C678     C      0.549840000000     0.931130000000     0.450590000000     0.350997   
C679     C      0.928400000000     0.932000000000     0.451470000000     0.350239   
C680     C      0.551810000000     0.547840000000     0.451460000000     0.350176   
C681     C      0.797690000000     0.796740000000     0.197350000000     0.344518   
C682     C      0.682530000000     0.683100000000     0.197360000000     0.344602   
C683     C      0.799070000000     0.684560000000     0.197350000000     0.344378   
C684     C      0.681150000000     0.795270000000     0.197330000000     0.344622   
C685     C      0.681290000000     0.799650000000     0.284670000000     0.351048   
C686     C      0.798910000000     0.680200000000     0.284700000000     0.351076   
C687     C      0.798040000000     0.801620000000     0.283800000000     0.350237   
C688     C      0.682170000000     0.678230000000     0.283800000000     0.350256   
C689     C      0.578760000000     0.619840000000     0.087660000000    -0.063217   
C690     C      0.604310000000     0.605440000000     0.106150000000     0.0223749  
C691     C      0.610300000000     0.571530000000     0.102490000000    -0.0630272  
C692     C      0.591530000000     0.552630000000     0.080590000000     0.020634   
C693     C      0.566100000000     0.567120000000     0.062060000000    -0.097003   
C694     C      0.559790000000     0.600900000000     0.066040000000     0.0210616  
C695     C      0.624600000000     0.625730000000     0.129110000000     0.0223728  
C696     C      0.658520000000     0.619780000000     0.132760000000    -0.0630244  
C697     C      0.677420000000     0.638560000000     0.154660000000     0.0205941  
C698     C      0.662900000000     0.663960000000     0.173200000000    -0.0969683  
C699     C      0.629110000000     0.670240000000     0.169230000000     0.0210326  
C700     C      0.610170000000     0.651260000000     0.147600000000    -0.0631836  
C701     C      0.615230000000     0.568570000000     0.385860000000    -0.0631857  
C702     C      0.609090000000     0.602210000000     0.380370000000     0.0226537  
C703     C      0.584610000000     0.617880000000     0.399290000000    -0.063627   
C704     C      0.566240000000     0.600260000000     0.422480000000     0.0222302  
C705     C      0.572170000000     0.566610000000     0.427690000000    -0.0985998  
C706     C      0.597100000000     0.551010000000     0.409380000000     0.021745   
C707     C      0.627810000000     0.620930000000     0.354880000000     0.02271    
C708     C      0.661460000000     0.614800000000     0.349390000000    -0.0632229  
C709     C      0.679020000000     0.632950000000     0.325870000000     0.0217257  
C710     C      0.663400000000     0.657870000000     0.307580000000    -0.0985846  
C711     C      0.629740000000     0.663780000000     0.312800000000     0.0222763  
C712     C      0.612120000000     0.645400000000     0.335980000000    -0.0636711  
C713     C      0.608360000000     0.826250000000     0.147490000000    -0.0630093  
C714     C      0.622550000000     0.851910000000     0.128970000000     0.0223128  
C715     C      0.656480000000     0.857990000000     0.132450000000    -0.0631214  
C716     C      0.675540000000     0.839380000000     0.154320000000     0.0206383  
C717     C      0.661250000000     0.813980000000     0.173030000000    -0.0969583  
C718     C      0.627500000000     0.807420000000     0.169120000000     0.020919   
C719     C      0.602110000000     0.872360000000     0.106280000000     0.0222563  
C720     C      0.576420000000     0.858190000000     0.087780000000    -0.0629726  
C721     C      0.557590000000     0.877340000000     0.066150000000     0.0208436  
C722     C      0.564190000000     0.911070000000     0.062220000000    -0.0968015  
C723     C      0.589620000000     0.925340000000     0.080920000000     0.0205141  
C724     C      0.608220000000     0.906270000000     0.102790000000    -0.0630052  
C725     C      0.823750000000     0.621840000000     0.132480000000    -0.0630346  
C726     C      0.857680000000     0.627910000000     0.129010000000     0.0222631  
C727     C      0.871870000000     0.653570000000     0.147530000000    -0.0629486  
C728     C      0.852730000000     0.672410000000     0.169160000000     0.020832   
C729     C      0.818980000000     0.665850000000     0.173060000000    -0.0968265  
C730     C      0.804690000000     0.640450000000     0.154350000000     0.0205519  
C731     C      0.878130000000     0.607460000000     0.106320000000     0.0222871  
C732     C      0.872010000000     0.573560000000     0.102820000000    -0.0629909  
C733     C      0.890610000000     0.554490000000     0.080950000000     0.0204909  
C734     C      0.916040000000     0.568760000000     0.062250000000    -0.0967718  
C735     C      0.922640000000     0.602490000000     0.066180000000     0.0208236  
C736     C      0.903810000000     0.621630000000     0.087820000000    -0.0629669  
C737     C      0.895590000000     0.861970000000     0.399290000000    -0.0636594  
C738     C      0.871110000000     0.877640000000     0.380370000000     0.0226763  
C739     C      0.864970000000     0.911280000000     0.385860000000    -0.0632057  
C740     C      0.883110000000     0.928840000000     0.409380000000     0.0217565  
C741     C      0.908040000000     0.913240000000     0.427690000000    -0.0986321  
C742     C      0.913960000000     0.879590000000     0.422480000000     0.0222625  
C743     C      0.852400000000     0.858920000000     0.354880000000     0.022654   
C744     C      0.868080000000     0.834450000000     0.335970000000    -0.0635971  
C745     C      0.850470000000     0.816070000000     0.312790000000     0.0222393  
C746     C      0.816810000000     0.821980000000     0.307570000000    -0.0985925  
C747     C      0.801190000000     0.846910000000     0.325870000000     0.0216926  
C748     C      0.818750000000     0.865050000000     0.349390000000    -0.0631701  
C749     C      0.829270000000     0.608540000000     0.336470000000    -0.0636519  
C750     C      0.854120000000     0.623440000000     0.355530000000     0.0227431  
C751     C      0.860430000000     0.657180000000     0.351100000000    -0.0636388  
C752     C      0.842650000000     0.675450000000     0.327970000000     0.0221065  
C753     C      0.817840000000     0.660560000000     0.308940000000    -0.0992088  
C754     C      0.811220000000     0.626930000000     0.313550000000     0.0220922  
C755     C      0.873590000000     0.603980000000     0.379820000000     0.0226913  
C756     C      0.858670000000     0.579130000000     0.398860000000    -0.0636004  
C757     C      0.877070000000     0.561060000000     0.421770000000     0.0220155  
C758     C      0.910710000000     0.567670000000     0.426380000000    -0.0990612  
C759     C      0.925610000000     0.592490000000     0.407370000000     0.0219654  
C760     C      0.907330000000     0.610270000000     0.384260000000    -0.0635107  
C761     C      0.621520000000     0.900730000000     0.398820000000    -0.063529   
C762     C      0.606610000000     0.875890000000     0.379770000000     0.0226351  
C763     C      0.572850000000     0.869600000000     0.384210000000    -0.0634915  
C764     C      0.554580000000     0.887380000000     0.407330000000     0.0219369  
C765     C      0.569490000000     0.912190000000     0.426350000000    -0.098997   
C766     C      0.603130000000     0.918790000000     0.421740000000     0.0219589  
C767     C      0.626070000000     0.856420000000     0.355490000000     0.0227376  
C768     C      0.650920000000     0.871320000000     0.336430000000    -0.0636406  
C769     C      0.668980000000     0.852920000000     0.313520000000     0.0220905  
C770     C      0.662360000000     0.819300000000     0.308910000000    -0.0991338  
C771     C      0.637530000000     0.804410000000     0.327930000000     0.0220075  
C772     C      0.619760000000     0.822690000000     0.351050000000    -0.0635603  
C773     C      0.870050000000     0.828570000000     0.147600000000    -0.0631628  
C774     C      0.855630000000     0.854100000000     0.129100000000     0.0223441  
C775     C      0.821700000000     0.860050000000     0.132760000000    -0.0630597  
C776     C      0.802810000000     0.841270000000     0.154650000000     0.0206812  
C777     C      0.817320000000     0.815870000000     0.173190000000    -0.0970354  
C778     C      0.851110000000     0.809590000000     0.169230000000     0.0210525  
C779     C      0.875910000000     0.874390000000     0.106150000000     0.0223899  
C780     C      0.869920000000     0.908300000000     0.102490000000    -0.0630859  
C781     C      0.888700000000     0.927200000000     0.080590000000     0.0206711  
C782     C      0.914130000000     0.912710000000     0.062060000000    -0.0970975  
C783     C      0.920440000000     0.878940000000     0.066040000000     0.0211192  
C784     C      0.901470000000     0.859990000000     0.087660000000    -0.0632427  
C785     C      0.933260000000     0.932340000000     0.537910000000     0.344569   
C786     C      0.546960000000     0.547490000000     0.537910000000     0.34462    
C787     C      0.545480000000     0.930980000000     0.537940000000     0.344288   
C788     C      0.934750000000     0.548850000000     0.537960000000     0.344356   
C789     C      0.930360000000     0.548730000000     0.950610000000     0.350885   
C790     C      0.549840000000     0.931130000000     0.950590000000     0.350975   
C791     C      0.928400000000     0.932000000000     0.951470000000     0.350222   
C792     C      0.551810000000     0.547840000000     0.951460000000     0.350162   
C793     C      0.797690000000     0.796740000000     0.697350000000     0.344585   
C794     C      0.682530000000     0.683100000000     0.697360000000     0.344621   
C795     C      0.799070000000     0.684560000000     0.697350000000     0.344344   
C796     C      0.681150000000     0.795270000000     0.697320000000     0.34453    
C797     C      0.681290000000     0.799650000000     0.784670000000     0.35105    
C798     C      0.798910000000     0.680200000000     0.784700000000     0.351036   
C799     C      0.798040000000     0.801620000000     0.783800000000     0.350217   
C800     C      0.682170000000     0.678230000000     0.783800000000     0.350234   
C801     C      0.578760000000     0.619840000000     0.587660000000    -0.0632307  
C802     C      0.604310000000     0.605440000000     0.606150000000     0.0223744  
C803     C      0.610300000000     0.571530000000     0.602490000000    -0.0630406  
C804     C      0.591530000000     0.552630000000     0.580590000000     0.0206451  
C805     C      0.566100000000     0.567120000000     0.562060000000    -0.0970514  
C806     C      0.559790000000     0.600900000000     0.566040000000     0.0210746  
C807     C      0.624600000000     0.625730000000     0.629110000000     0.0223671  
C808     C      0.658520000000     0.619780000000     0.632760000000    -0.0630283  
C809     C      0.677420000000     0.638560000000     0.654660000000     0.0205938  
C810     C      0.662900000000     0.663960000000     0.673200000000    -0.0969775  
C811     C      0.629110000000     0.670240000000     0.669230000000     0.0210329  
C812     C      0.610170000000     0.651260000000     0.647600000000    -0.0631857  
C813     C      0.615230000000     0.568570000000     0.885860000000    -0.0632093  
C814     C      0.609090000000     0.602210000000     0.880380000000     0.0226814  
C815     C      0.584610000000     0.617880000000     0.899290000000    -0.0636571  
C816     C      0.566240000000     0.600260000000     0.922480000000     0.0222341  
C817     C      0.572170000000     0.566610000000     0.927690000000    -0.0986154  
C818     C      0.597100000000     0.551010000000     0.909380000000     0.0217495  
C819     C      0.627810000000     0.620930000000     0.854880000000     0.0226958  
C820     C      0.661460000000     0.614800000000     0.849390000000    -0.0632184  
C821     C      0.679020000000     0.632950000000     0.825870000000     0.0217168  
C822     C      0.663400000000     0.657870000000     0.807580000000    -0.0985745  
C823     C      0.629740000000     0.663780000000     0.812800000000     0.022269   
C824     C      0.612120000000     0.645400000000     0.835980000000    -0.0636649  
C825     C      0.608360000000     0.826250000000     0.647490000000    -0.0630192  
C826     C      0.622550000000     0.851910000000     0.628970000000     0.0223137  
C827     C      0.656480000000     0.857990000000     0.632450000000    -0.0631315  
C828     C      0.675540000000     0.839380000000     0.654320000000     0.0206498  
C829     C      0.661250000000     0.813980000000     0.673030000000    -0.0970004  
C830     C      0.627500000000     0.807420000000     0.669120000000     0.0209368  
C831     C      0.602110000000     0.872360000000     0.606280000000     0.0222525  
C832     C      0.576420000000     0.858190000000     0.587780000000    -0.0629816  
C833     C      0.557590000000     0.877340000000     0.566150000000     0.0208425  
C834     C      0.564190000000     0.911070000000     0.562230000000    -0.0968083  
C835     C      0.589620000000     0.925340000000     0.580930000000     0.0205097  
C836     C      0.608220000000     0.906270000000     0.602790000000    -0.0630138  
C837     C      0.823750000000     0.621840000000     0.632480000000    -0.0630368  
C838     C      0.857680000000     0.627910000000     0.629010000000     0.0222594  
C839     C      0.871870000000     0.653570000000     0.647530000000    -0.062947   
C840     C      0.852730000000     0.672410000000     0.669160000000     0.0208207  
C841     C      0.818980000000     0.665850000000     0.673060000000    -0.0968138  
C842     C      0.804690000000     0.640450000000     0.654340000000     0.0205362  
C843     C      0.878130000000     0.607460000000     0.606320000000     0.0222731  
C844     C      0.872010000000     0.573560000000     0.602820000000    -0.0629954  
C845     C      0.890610000000     0.554490000000     0.580950000000     0.020493   
C846     C      0.916040000000     0.568760000000     0.562250000000    -0.0968045  
C847     C      0.922640000000     0.602490000000     0.566180000000     0.0208385  
C848     C      0.903810000000     0.621630000000     0.587810000000    -0.0629764  
C849     C      0.895590000000     0.861970000000     0.899290000000    -0.0636893  
C850     C      0.871110000000     0.877640000000     0.880380000000     0.022704   
C851     C      0.864970000000     0.911280000000     0.885860000000    -0.0632293  
C852     C      0.883110000000     0.928840000000     0.909380000000     0.0217609  
C853     C      0.908040000000     0.913240000000     0.927690000000    -0.0986478  
C854     C      0.913960000000     0.879590000000     0.922480000000     0.0222661  
C855     C      0.852400000000     0.858920000000     0.854880000000     0.02264    
C856     C      0.868080000000     0.834450000000     0.835970000000    -0.0635905  
C857     C      0.850470000000     0.816070000000     0.812790000000     0.0222317  
C858     C      0.816810000000     0.821980000000     0.807570000000    -0.0985825  
C859     C      0.801190000000     0.846910000000     0.825870000000     0.021685   
C860     C      0.818750000000     0.865050000000     0.849390000000    -0.0631658  
C861     C      0.829270000000     0.608540000000     0.836470000000    -0.0636477  
C862     C      0.854120000000     0.623440000000     0.855530000000     0.0227366  
C863     C      0.860430000000     0.657180000000     0.851100000000    -0.0636362  
C864     C      0.842650000000     0.675450000000     0.827970000000     0.0220966  
C865     C      0.817840000000     0.660560000000     0.808940000000    -0.0991919  
C866     C      0.811220000000     0.626930000000     0.813550000000     0.0220833  
C867     C      0.873590000000     0.603980000000     0.879820000000     0.0226897  
C868     C      0.858670000000     0.579130000000     0.898860000000    -0.0636077  
C869     C      0.877070000000     0.561060000000     0.921770000000     0.0220088  
C870     C      0.910710000000     0.567670000000     0.926380000000    -0.0990694  
C871     C      0.925610000000     0.592490000000     0.907370000000     0.0219607  
C872     C      0.907330000000     0.610270000000     0.884260000000    -0.0635154  
C873     C      0.621520000000     0.900730000000     0.898820000000    -0.0635355  
C874     C      0.606610000000     0.875890000000     0.879770000000     0.0226321  
C875     C      0.572850000000     0.869600000000     0.884210000000    -0.0634954  
C876     C      0.554580000000     0.887380000000     0.907330000000     0.0219315  
C877     C      0.569490000000     0.912190000000     0.926350000000    -0.0990046  
C878     C      0.603130000000     0.918790000000     0.921740000000     0.0219513  
C879     C      0.626070000000     0.856420000000     0.855490000000     0.0227341  
C880     C      0.650920000000     0.871320000000     0.836430000000    -0.0636405  
C881     C      0.668980000000     0.852920000000     0.813520000000     0.0220894  
C882     C      0.662360000000     0.819300000000     0.808910000000    -0.0991323  
C883     C      0.637530000000     0.804410000000     0.827930000000     0.0220049  
C884     C      0.619760000000     0.822690000000     0.851050000000    -0.0635618  
C885     C      0.870050000000     0.828570000000     0.647600000000    -0.0631818  
C886     C      0.855630000000     0.854100000000     0.629100000000     0.0223483  
C887     C      0.821700000000     0.860050000000     0.632760000000    -0.063074   
C888     C      0.802810000000     0.841270000000     0.654650000000     0.0206966  
C889     C      0.817320000000     0.815870000000     0.673200000000    -0.0971072  
C890     C      0.851110000000     0.809590000000     0.669230000000     0.0210865  
C891     C      0.875910000000     0.874390000000     0.606150000000     0.0223885  
C892     C      0.869920000000     0.908300000000     0.602490000000    -0.0630973  
C893     C      0.888700000000     0.927200000000     0.580590000000     0.0206773  
C894     C      0.914130000000     0.912710000000     0.562060000000    -0.097136   
C895     C      0.920440000000     0.878940000000     0.566040000000     0.0211345  
C896     C      0.901470000000     0.859990000000     0.587660000000    -0.0632608  
Co1      Co     0.441630000000     0.990560000000     0.993880000000     0.830961   
Co2      Co     0.038590000000     0.489280000000     0.493880000000     0.831518   
Co3      Co     0.489430000000     0.440770000000     0.991230000000     0.836995   
Co4      Co     0.490790000000     0.039070000000     0.491240000000     0.837131   
Co5      Co     0.239460000000     0.288380000000     0.241390000000     0.831574   
Co6      Co     0.240750000000     0.191460000000     0.241400000000     0.831539   
Co7      Co     0.289280000000     0.240600000000     0.244050000000     0.837033   
Co8      Co     0.190940000000     0.239240000000     0.244040000000     0.836856   
Co9      Co     0.441630000000     0.990560000000     0.493880000000     0.831175   
Co10     Co     0.038590000000     0.489280000000     0.993880000000     0.83131    
Co11     Co     0.489430000000     0.440770000000     0.491230000000     0.837191   
Co12     Co     0.490790000000     0.039070000000     0.991240000000     0.836978   
Co13     Co     0.239460000000     0.288380000000     0.741390000000     0.831555   
Co14     Co     0.240750000000     0.191460000000     0.741390000000     0.831508   
Co15     Co     0.289280000000     0.240600000000     0.744040000000     0.837051   
Co16     Co     0.190940000000     0.239240000000     0.744040000000     0.836843   
Co17     Co     0.441630000000     0.490560000000     0.993880000000     0.831049   
Co18     Co     0.038590000000     0.989280000000     0.493880000000     0.831395   
Co19     Co     0.489430000000     0.940770000000     0.991230000000     0.836954   
Co20     Co     0.490790000000     0.539070000000     0.491240000000     0.837065   
Co21     Co     0.239460000000     0.788380000000     0.241390000000     0.831575   
Co22     Co     0.240750000000     0.691460000000     0.241400000000     0.831548   
Co23     Co     0.289280000000     0.740600000000     0.244050000000     0.837019   
Co24     Co     0.190940000000     0.739240000000     0.244040000000     0.836857   
Co25     Co     0.441630000000     0.490560000000     0.493880000000     0.831264   
Co26     Co     0.038590000000     0.989280000000     0.993880000000     0.831188   
Co27     Co     0.489430000000     0.940770000000     0.491230000000     0.83715    
Co28     Co     0.490790000000     0.539070000000     0.991240000000     0.836912   
Co29     Co     0.239460000000     0.788380000000     0.741390000000     0.831556   
Co30     Co     0.240750000000     0.691460000000     0.741390000000     0.831517   
Co31     Co     0.289280000000     0.740600000000     0.744040000000     0.837037   
Co32     Co     0.190940000000     0.739240000000     0.744040000000     0.836844   
Co33     Co     0.941620000000     0.990560000000     0.993880000000     0.8311     
Co34     Co     0.538590000000     0.489280000000     0.493880000000     0.831475   
Co35     Co     0.989430000000     0.440770000000     0.991230000000     0.836924   
Co36     Co     0.990790000000     0.039070000000     0.491240000000     0.837089   
Co37     Co     0.739460000000     0.288380000000     0.241390000000     0.831574   
Co38     Co     0.740750000000     0.191460000000     0.241400000000     0.831537   
Co39     Co     0.789280000000     0.240600000000     0.244050000000     0.837034   
Co40     Co     0.690940000000     0.239240000000     0.244040000000     0.836928   
Co41     Co     0.941620000000     0.990560000000     0.493880000000     0.831314   
Co42     Co     0.538590000000     0.489280000000     0.993880000000     0.831267   
Co43     Co     0.989430000000     0.440770000000     0.491230000000     0.837121   
Co44     Co     0.990790000000     0.039070000000     0.991240000000     0.836937   
Co45     Co     0.739460000000     0.288380000000     0.741390000000     0.831556   
Co46     Co     0.740750000000     0.191460000000     0.741390000000     0.831506   
Co47     Co     0.789280000000     0.240600000000     0.744040000000     0.837052   
Co48     Co     0.690940000000     0.239240000000     0.744040000000     0.836915   
Co49     Co     0.941620000000     0.490560000000     0.993880000000     0.831188   
Co50     Co     0.538590000000     0.989280000000     0.493880000000     0.831352   
Co51     Co     0.989430000000     0.940770000000     0.991230000000     0.836883   
Co52     Co     0.990790000000     0.539070000000     0.491240000000     0.837023   
Co53     Co     0.739460000000     0.788380000000     0.241390000000     0.831576   
Co54     Co     0.740750000000     0.691460000000     0.241400000000     0.831546   
Co55     Co     0.789280000000     0.740600000000     0.244050000000     0.83702    
Co56     Co     0.690940000000     0.739240000000     0.244040000000     0.836928   
Co57     Co     0.941620000000     0.490560000000     0.493880000000     0.831403   
Co58     Co     0.538590000000     0.989280000000     0.993880000000     0.831145   
Co59     Co     0.989430000000     0.940770000000     0.491230000000     0.837079   
Co60     Co     0.990790000000     0.539070000000     0.991240000000     0.83687    
Co61     Co     0.739460000000     0.788380000000     0.741390000000     0.831557   
Co62     Co     0.740750000000     0.691460000000     0.741390000000     0.831515   
Co63     Co     0.789280000000     0.740600000000     0.744040000000     0.837038   
Co64     Co     0.690940000000     0.739240000000     0.744040000000     0.836915   
H1       H      0.129350000000     0.059440000000     0.116750000000     0.0472103  
H2       H      0.096920000000     0.026630000000     0.078270000000     0.0402624  
H3       H      0.040570000000     0.112930000000     0.051950000000     0.0420259  
H4       H      0.073730000000     0.145940000000     0.089380000000     0.0471064  
H5       H      0.170630000000     0.100750000000     0.118500000000     0.0472597  
H6       H      0.203430000000     0.133190000000     0.156980000000     0.040245   
H7       H      0.117060000000     0.189440000000     0.183330000000     0.0420101  
H8       H      0.084050000000     0.156260000000     0.145890000000     0.0470828  
H9       H      0.079680000000     0.143890000000     0.396370000000     0.0473766  
H10      H      0.047440000000     0.113100000000     0.436410000000     0.0408114  
H11      H      0.102130000000     0.025040000000     0.412680000000     0.0411569  
H12      H      0.133580000000     0.055560000000     0.371500000000     0.047378   
H13      H      0.174480000000     0.096460000000     0.363740000000     0.0473939  
H14      H      0.204990000000     0.127930000000     0.322570000000     0.0411593  
H15      H      0.116880000000     0.182580000000     0.298870000000     0.040785   
H16      H      0.086100000000     0.150330000000     0.338910000000     0.0473869  
H17      H      0.168450000000     0.377040000000     0.118120000000     0.0472177  
H18      H      0.201530000000     0.344930000000     0.156520000000     0.0403733  
H19      H      0.115640000000     0.288170000000     0.183310000000     0.041858   
H20      H      0.082260000000     0.321100000000     0.145840000000     0.0470572  
H21      H      0.071240000000     0.332120000000     0.089430000000     0.0471123  
H22      H      0.038320000000     0.365500000000     0.051970000000     0.0418847  
H23      H      0.095200000000     0.451310000000     0.078710000000     0.0403923  
H24      H      0.127300000000     0.418220000000     0.117120000000     0.0471804  
H25      H      0.397970000000     0.158720000000     0.145880000000     0.0470414  
H26      H      0.364590000000     0.191650000000     0.183350000000     0.0418657  
H27      H      0.278700000000     0.134900000000     0.156550000000     0.0403946  
H28      H      0.311780000000     0.102780000000     0.118150000000     0.0471957  
H29      H      0.352930000000     0.061600000000     0.117150000000     0.0471617  
H30      H      0.385030000000     0.028520000000     0.078730000000     0.0404256  
H31      H      0.441910000000     0.114330000000     0.052000000000     0.041907   
H32      H      0.409000000000     0.147710000000     0.089480000000     0.0470528  
H33      H      0.346620000000     0.424290000000     0.371500000000     0.0473679  
H34      H      0.378080000000     0.454810000000     0.412680000000     0.0411499  
H35      H      0.432760000000     0.366740000000     0.436410000000     0.0407994  
H36      H      0.400520000000     0.335960000000     0.396370000000     0.0473729  
H37      H      0.394110000000     0.329530000000     0.338900000000     0.0473563  
H38      H      0.363330000000     0.297280000000     0.298870000000     0.0407729  
H39      H      0.275210000000     0.351920000000     0.322560000000     0.0411394  
H40      H      0.305720000000     0.383390000000     0.363740000000     0.0473783  
H41      H      0.378880000000     0.169670000000     0.365780000000     0.0475732  
H42      H      0.348160000000     0.201400000000     0.325310000000     0.0413364  
H43      H      0.292330000000     0.114690000000     0.299200000000     0.0411495  
H44      H      0.324040000000     0.082530000000     0.338870000000     0.0473402  
H45      H      0.332650000000     0.073910000000     0.396460000000     0.0473313  
H46      H      0.364820000000     0.042170000000     0.436110000000     0.0411696  
H47      H      0.451570000000     0.097980000000     0.410030000000     0.0413641  
H48      H      0.419840000000     0.128730000000     0.369590000000     0.0475382  
H49      H      0.060350000000     0.351150000000     0.369530000000     0.0475424  
H50      H      0.028630000000     0.381890000000     0.409990000000     0.0413934  
H51      H      0.115380000000     0.437670000000     0.436080000000     0.0411593  
H52      H      0.147550000000     0.405940000000     0.396420000000     0.0472997  
H53      H      0.156160000000     0.397330000000     0.338830000000     0.0473275  
H54      H      0.187880000000     0.365160000000     0.299170000000     0.0411411  
H55      H      0.132020000000     0.278470000000     0.325270000000     0.0413681  
H56      H      0.101290000000     0.310200000000     0.365720000000     0.0475361  
H57      H      0.309590000000     0.379080000000     0.118490000000     0.0471992  
H58      H      0.276790000000     0.346640000000     0.156970000000     0.0402299  
H59      H      0.363160000000     0.290390000000     0.183330000000     0.0420055  
H60      H      0.396170000000     0.323560000000     0.145880000000     0.0470579  
H61      H      0.350880000000     0.420390000000     0.116750000000     0.0472298  
H62      H      0.383310000000     0.453200000000     0.078270000000     0.0402396  
H63      H      0.439660000000     0.366910000000     0.051950000000     0.0420195  
H64      H      0.406500000000     0.333890000000     0.089380000000     0.0471026  
H65      H      0.129350000000     0.059440000000     0.616750000000     0.0472088  
H66      H      0.096920000000     0.026630000000     0.578270000000     0.040248   
H67      H      0.040570000000     0.112930000000     0.551950000000     0.0420014  
H68      H      0.073730000000     0.145940000000     0.589390000000     0.0470938  
H69      H      0.170630000000     0.100750000000     0.618500000000     0.047249   
H70      H      0.203430000000     0.133190000000     0.656980000000     0.0402402  
H71      H      0.117060000000     0.189440000000     0.683330000000     0.0420082  
H72      H      0.084050000000     0.156260000000     0.645890000000     0.0470798  
H73      H      0.079680000000     0.143890000000     0.896370000000     0.0473718  
H74      H      0.047440000000     0.113100000000     0.936410000000     0.0407881  
H75      H      0.102130000000     0.025040000000     0.912680000000     0.0411486  
H76      H      0.133580000000     0.055560000000     0.871500000000     0.0473809  
H77      H      0.174480000000     0.096460000000     0.863740000000     0.0473838  
H78      H      0.204990000000     0.127930000000     0.822570000000     0.0411586  
H79      H      0.116880000000     0.182580000000     0.798870000000     0.0407869  
H80      H      0.086100000000     0.150330000000     0.838910000000     0.0473841  
H81      H      0.168450000000     0.377040000000     0.618120000000     0.0472085  
H82      H      0.201530000000     0.344930000000     0.656520000000     0.0403628  
H83      H      0.115640000000     0.288170000000     0.683310000000     0.0418524  
H84      H      0.082260000000     0.321100000000     0.645840000000     0.0470578  
H85      H      0.071240000000     0.332120000000     0.589430000000     0.0471     
H86      H      0.038320000000     0.365500000000     0.551960000000     0.0418611  
H87      H      0.095200000000     0.451310000000     0.578710000000     0.0403807  
H88      H      0.127300000000     0.418220000000     0.617120000000     0.0471778  
H89      H      0.397970000000     0.158720000000     0.645880000000     0.0470383  
H90      H      0.364590000000     0.191650000000     0.683350000000     0.0418666  
H91      H      0.278700000000     0.134900000000     0.656550000000     0.0403949  
H92      H      0.311780000000     0.102780000000     0.618150000000     0.0471847  
H93      H      0.352930000000     0.061600000000     0.617150000000     0.0471585  
H94      H      0.385030000000     0.028520000000     0.578730000000     0.0404151  
H95      H      0.441910000000     0.114330000000     0.552000000000     0.0418803  
H96      H      0.409000000000     0.147710000000     0.589480000000     0.0470394  
H97      H      0.346620000000     0.424290000000     0.871500000000     0.0473708  
H98      H      0.378080000000     0.454810000000     0.912680000000     0.0411416  
H99      H      0.432760000000     0.366740000000     0.936410000000     0.0407756  
H100     H      0.400520000000     0.335960000000     0.896370000000     0.0473682  
H101     H      0.394110000000     0.329530000000     0.838900000000     0.0473536  
H102     H      0.363330000000     0.297280000000     0.798870000000     0.040775   
H103     H      0.275210000000     0.351920000000     0.822560000000     0.041139   
H104     H      0.305720000000     0.383390000000     0.863740000000     0.0473683  
H105     H      0.378880000000     0.169670000000     0.865780000000     0.0475634  
H106     H      0.348160000000     0.201400000000     0.825310000000     0.0413365  
H107     H      0.292330000000     0.114690000000     0.799200000000     0.0411517  
H108     H      0.324040000000     0.082530000000     0.838870000000     0.0473384  
H109     H      0.332650000000     0.073910000000     0.896460000000     0.0473213  
H110     H      0.364820000000     0.042170000000     0.936110000000     0.0411497  
H111     H      0.451570000000     0.097980000000     0.910030000000     0.0413578  
H112     H      0.419840000000     0.128730000000     0.869590000000     0.0475363  
H113     H      0.060350000000     0.351150000000     0.869530000000     0.0475403  
H114     H      0.028630000000     0.381890000000     0.909990000000     0.0413874  
H115     H      0.115380000000     0.437670000000     0.936080000000     0.0411394  
H116     H      0.147550000000     0.405940000000     0.896420000000     0.0472894  
H117     H      0.156160000000     0.397330000000     0.838830000000     0.0473268  
H118     H      0.187880000000     0.365160000000     0.799170000000     0.0411424  
H119     H      0.132020000000     0.278470000000     0.825270000000     0.0413656  
H120     H      0.101290000000     0.310200000000     0.865720000000     0.0475273  
H121     H      0.309590000000     0.379080000000     0.618490000000     0.0471911  
H122     H      0.276790000000     0.346640000000     0.656970000000     0.040221   
H123     H      0.363160000000     0.290390000000     0.683330000000     0.0419981  
H124     H      0.396170000000     0.323560000000     0.645880000000     0.0470608  
H125     H      0.350880000000     0.420390000000     0.616750000000     0.047228   
H126     H      0.383310000000     0.453200000000     0.578270000000     0.0402276  
H127     H      0.439660000000     0.366910000000     0.551940000000     0.0419927  
H128     H      0.406500000000     0.333890000000     0.589380000000     0.0470924  
H129     H      0.129350000000     0.559440000000     0.116750000000     0.0471994  
H130     H      0.096920000000     0.526630000000     0.078270000000     0.0402516  
H131     H      0.040570000000     0.612930000000     0.051950000000     0.0420408  
H132     H      0.073730000000     0.645940000000     0.089380000000     0.0471013  
H133     H      0.170630000000     0.600750000000     0.118500000000     0.0472307  
H134     H      0.203430000000     0.633190000000     0.156980000000     0.0402448  
H135     H      0.117060000000     0.689440000000     0.183330000000     0.0420114  
H136     H      0.084050000000     0.656260000000     0.145890000000     0.0470799  
H137     H      0.079680000000     0.643890000000     0.396370000000     0.0473774  
H138     H      0.047440000000     0.613100000000     0.436410000000     0.040811   
H139     H      0.102130000000     0.525040000000     0.412680000000     0.0411423  
H140     H      0.133580000000     0.555560000000     0.371500000000     0.04737    
H141     H      0.174480000000     0.596460000000     0.363740000000     0.0473896  
H142     H      0.204990000000     0.627930000000     0.322570000000     0.0411574  
H143     H      0.116880000000     0.682580000000     0.298870000000     0.0407848  
H144     H      0.086100000000     0.650330000000     0.338910000000     0.0473858  
H145     H      0.168450000000     0.877040000000     0.118120000000     0.0472166  
H146     H      0.201530000000     0.844930000000     0.156520000000     0.0403706  
H147     H      0.115640000000     0.788170000000     0.183310000000     0.041857   
H148     H      0.082260000000     0.821100000000     0.145840000000     0.0470592  
H149     H      0.071240000000     0.832110000000     0.089430000000     0.0470732  
H150     H      0.038320000000     0.865500000000     0.051970000000     0.0419088  
H151     H      0.095200000000     0.951310000000     0.078710000000     0.0403908  
H152     H      0.127300000000     0.918220000000     0.117120000000     0.0471656  
H153     H      0.397970000000     0.658720000000     0.145880000000     0.0470404  
H154     H      0.364590000000     0.691650000000     0.183350000000     0.041865   
H155     H      0.278700000000     0.634900000000     0.156550000000     0.0403924  
H156     H      0.311780000000     0.602780000000     0.118150000000     0.0471918  
H157     H      0.352930000000     0.561600000000     0.117150000000     0.047154   
H158     H      0.385030000000     0.528520000000     0.078730000000     0.040411   
H159     H      0.441910000000     0.614330000000     0.052000000000     0.0419068  
H160     H      0.409000000000     0.647710000000     0.089480000000     0.0470535  
H161     H      0.346620000000     0.924290000000     0.371500000000     0.0473657  
H162     H      0.378080000000     0.954810000000     0.412680000000     0.0411279  
H163     H      0.432760000000     0.866740000000     0.436410000000     0.0407854  
H164     H      0.400520000000     0.835960000000     0.396370000000     0.0473783  
H165     H      0.394110000000     0.829530000000     0.338900000000     0.0473441  
H166     H      0.363330000000     0.797280000000     0.298870000000     0.0407888  
H167     H      0.275210000000     0.851920000000     0.322560000000     0.0411499  
H168     H      0.305720000000     0.883390000000     0.363740000000     0.0473673  
H169     H      0.378880000000     0.669670000000     0.365780000000     0.0475764  
H170     H      0.348160000000     0.701400000000     0.325310000000     0.041331   
H171     H      0.292330000000     0.614690000000     0.299200000000     0.0411397  
H172     H      0.324040000000     0.582530000000     0.338870000000     0.0473346  
H173     H      0.332650000000     0.573910000000     0.396460000000     0.0473259  
H174     H      0.364820000000     0.542170000000     0.436110000000     0.0411588  
H175     H      0.451570000000     0.597980000000     0.410030000000     0.0413619  
H176     H      0.419840000000     0.628730000000     0.369590000000     0.047537   
H177     H      0.060350000000     0.851150000000     0.369530000000     0.0475384  
H178     H      0.028630000000     0.881890000000     0.409990000000     0.0414033  
H179     H      0.115380000000     0.937670000000     0.436080000000     0.041158   
H180     H      0.147550000000     0.905940000000     0.396420000000     0.0472914  
H181     H      0.156160000000     0.897330000000     0.338830000000     0.0473218  
H182     H      0.187880000000     0.865160000000     0.299170000000     0.0411374  
H183     H      0.132020000000     0.778470000000     0.325270000000     0.0413683  
H184     H      0.101290000000     0.810200000000     0.365720000000     0.0475373  
H185     H      0.309590000000     0.879070000000     0.118490000000     0.0472219  
H186     H      0.276790000000     0.846640000000     0.156970000000     0.0402215  
H187     H      0.363160000000     0.790390000000     0.183330000000     0.0420032  
H188     H      0.396170000000     0.823560000000     0.145880000000     0.0470599  
H189     H      0.350880000000     0.920390000000     0.116750000000     0.0472255  
H190     H      0.383310000000     0.953200000000     0.078270000000     0.0402203  
H191     H      0.439660000000     0.866910000000     0.051950000000     0.042014   
H192     H      0.406500000000     0.833890000000     0.089380000000     0.0471035  
H193     H      0.129350000000     0.559440000000     0.616750000000     0.0471979  
H194     H      0.096920000000     0.526630000000     0.578270000000     0.0402372  
H195     H      0.040570000000     0.612930000000     0.551950000000     0.0420163  
H196     H      0.073730000000     0.645940000000     0.589390000000     0.0470886  
H197     H      0.170630000000     0.600750000000     0.618500000000     0.0472199  
H198     H      0.203430000000     0.633190000000     0.656980000000     0.04024    
H199     H      0.117060000000     0.689440000000     0.683330000000     0.0420094  
H200     H      0.084050000000     0.656260000000     0.645890000000     0.0470769  
H201     H      0.079680000000     0.643890000000     0.896370000000     0.0473726  
H202     H      0.047440000000     0.613100000000     0.936410000000     0.0407877  
H203     H      0.102130000000     0.525040000000     0.912680000000     0.041134   
H204     H      0.133580000000     0.555560000000     0.871500000000     0.0473729  
H205     H      0.174480000000     0.596460000000     0.863740000000     0.0473796  
H206     H      0.204990000000     0.627930000000     0.822570000000     0.0411567  
H207     H      0.116880000000     0.682580000000     0.798870000000     0.0407867  
H208     H      0.086100000000     0.650330000000     0.838910000000     0.0473831  
H209     H      0.168450000000     0.877040000000     0.618120000000     0.0472074  
H210     H      0.201530000000     0.844930000000     0.656520000000     0.0403601  
H211     H      0.115640000000     0.788170000000     0.683310000000     0.0418514  
H212     H      0.082260000000     0.821100000000     0.645840000000     0.0470598  
H213     H      0.071240000000     0.832110000000     0.589430000000     0.047061   
H214     H      0.038320000000     0.865500000000     0.551960000000     0.0418852  
H215     H      0.095200000000     0.951310000000     0.578710000000     0.0403792  
H216     H      0.127300000000     0.918220000000     0.617120000000     0.047163   
H217     H      0.397970000000     0.658720000000     0.645880000000     0.0470373  
H218     H      0.364590000000     0.691650000000     0.683350000000     0.0418659  
H219     H      0.278700000000     0.634900000000     0.656550000000     0.0403928  
H220     H      0.311780000000     0.602780000000     0.618150000000     0.0471808  
H221     H      0.352930000000     0.561600000000     0.617150000000     0.0471508  
H222     H      0.385030000000     0.528520000000     0.578730000000     0.0404005  
H223     H      0.441910000000     0.614330000000     0.552000000000     0.0418801  
H224     H      0.409000000000     0.647710000000     0.589480000000     0.0470401  
H225     H      0.346620000000     0.924290000000     0.871500000000     0.0473686  
H226     H      0.378080000000     0.954810000000     0.912680000000     0.0411196  
H227     H      0.432760000000     0.866740000000     0.936410000000     0.0407616  
H228     H      0.400520000000     0.835960000000     0.896370000000     0.0473736  
H229     H      0.394110000000     0.829530000000     0.838900000000     0.0473415  
H230     H      0.363330000000     0.797280000000     0.798870000000     0.040791   
H231     H      0.275210000000     0.851920000000     0.822560000000     0.0411496  
H232     H      0.305720000000     0.883390000000     0.863740000000     0.0473574  
H233     H      0.378880000000     0.669670000000     0.865780000000     0.0475666  
H234     H      0.348160000000     0.701400000000     0.825310000000     0.041331   
H235     H      0.292330000000     0.614690000000     0.799200000000     0.0411419  
H236     H      0.324040000000     0.582530000000     0.838870000000     0.0473328  
H237     H      0.332650000000     0.573910000000     0.896460000000     0.0473159  
H238     H      0.364820000000     0.542170000000     0.936110000000     0.0411389  
H239     H      0.451570000000     0.597980000000     0.910030000000     0.0413557  
H240     H      0.419840000000     0.628730000000     0.869590000000     0.0475351  
H241     H      0.060350000000     0.851150000000     0.869530000000     0.0475363  
H242     H      0.028630000000     0.881890000000     0.909990000000     0.0413973  
H243     H      0.115380000000     0.937670000000     0.936080000000     0.041138   
H244     H      0.147550000000     0.905940000000     0.896420000000     0.0472811  
H245     H      0.156160000000     0.897330000000     0.838830000000     0.0473211  
H246     H      0.187880000000     0.865160000000     0.799170000000     0.0411387  
H247     H      0.132020000000     0.778470000000     0.825270000000     0.0413659  
H248     H      0.101290000000     0.810200000000     0.865720000000     0.0475285  
H249     H      0.309590000000     0.879070000000     0.618490000000     0.0472138  
H250     H      0.276790000000     0.846640000000     0.656970000000     0.0402127  
H251     H      0.363160000000     0.790390000000     0.683330000000     0.0419957  
H252     H      0.396170000000     0.823560000000     0.645880000000     0.0470627  
H253     H      0.350880000000     0.920390000000     0.616750000000     0.0472237  
H254     H      0.383310000000     0.953200000000     0.578270000000     0.0402083  
H255     H      0.439660000000     0.866910000000     0.551940000000     0.0419871  
H256     H      0.406500000000     0.833890000000     0.589380000000     0.0470933  
H257     H      0.629350000000     0.059440000000     0.116750000000     0.0472137  
H258     H      0.596920000000     0.026630000000     0.078270000000     0.0402506  
H259     H      0.540570000000     0.112930000000     0.051950000000     0.0420075  
H260     H      0.573730000000     0.145940000000     0.089380000000     0.0471055  
H261     H      0.670630000000     0.100750000000     0.118500000000     0.0472422  
H262     H      0.703430000000     0.133190000000     0.156980000000     0.0402521  
H263     H      0.617060000000     0.189440000000     0.183330000000     0.0420068  
H264     H      0.584050000000     0.156260000000     0.145890000000     0.0470751  
H265     H      0.579680000000     0.143890000000     0.396370000000     0.0473718  
H266     H      0.547440000000     0.113100000000     0.436410000000     0.0408015  
H267     H      0.602130000000     0.025040000000     0.412680000000     0.0411549  
H268     H      0.633580000000     0.055560000000     0.371500000000     0.0473772  
H269     H      0.674480000000     0.096460000000     0.363740000000     0.0473942  
H270     H      0.704990000000     0.127930000000     0.322570000000     0.0411594  
H271     H      0.616880000000     0.182580000000     0.298870000000     0.0407804  
H272     H      0.586100000000     0.150330000000     0.338910000000     0.0473799  
H273     H      0.668450000000     0.377040000000     0.118120000000     0.0472218  
H274     H      0.701530000000     0.344930000000     0.156520000000     0.0403646  
H275     H      0.615640000000     0.288170000000     0.183310000000     0.0418392  
H276     H      0.582260000000     0.321100000000     0.145840000000     0.0470537  
H277     H      0.571240000000     0.332120000000     0.089430000000     0.0471062  
H278     H      0.538320000000     0.365500000000     0.051970000000     0.0418735  
H279     H      0.595200000000     0.451310000000     0.078710000000     0.0403904  
H280     H      0.627300000000     0.418220000000     0.117120000000     0.0471787  
H281     H      0.897970000000     0.158720000000     0.145880000000     0.047034   
H282     H      0.864590000000     0.191650000000     0.183350000000     0.0418629  
H283     H      0.778700000000     0.134900000000     0.156550000000     0.0403952  
H284     H      0.811780000000     0.102780000000     0.118150000000     0.0471947  
H285     H      0.852930000000     0.061600000000     0.117150000000     0.0471646  
H286     H      0.885030000000     0.028520000000     0.078730000000     0.0404208  
H287     H      0.941910000000     0.114330000000     0.052000000000     0.0418942  
H288     H      0.909000000000     0.147710000000     0.089480000000     0.0470536  
H289     H      0.846620000000     0.424290000000     0.371500000000     0.0473682  
H290     H      0.878080000000     0.454810000000     0.412680000000     0.0411463  
H291     H      0.932760000000     0.366740000000     0.436410000000     0.0407888  
H292     H      0.900520000000     0.335960000000     0.396370000000     0.0473696  
H293     H      0.894110000000     0.329530000000     0.338900000000     0.0473498  
H294     H      0.863330000000     0.297280000000     0.298870000000     0.0407673  
H295     H      0.775210000000     0.351920000000     0.322560000000     0.04115    
H296     H      0.805720000000     0.383390000000     0.363740000000     0.0473725  
H297     H      0.878880000000     0.169670000000     0.365780000000     0.0475699  
H298     H      0.848160000000     0.201400000000     0.325310000000     0.0413343  
H299     H      0.792330000000     0.114690000000     0.299200000000     0.0411492  
H300     H      0.824040000000     0.082530000000     0.338870000000     0.0473393  
H301     H      0.832650000000     0.073910000000     0.396460000000     0.0473307  
H302     H      0.864820000000     0.042170000000     0.436110000000     0.0411696  
H303     H      0.951560000000     0.097980000000     0.410030000000     0.0413654  
H304     H      0.919840000000     0.128730000000     0.369590000000     0.0475104  
H305     H      0.560350000000     0.351150000000     0.369530000000     0.0475273  
H306     H      0.528630000000     0.381890000000     0.409990000000     0.0413825  
H307     H      0.615380000000     0.437670000000     0.436080000000     0.0411611  
H308     H      0.647550000000     0.405940000000     0.396420000000     0.0472952  
H309     H      0.656160000000     0.397330000000     0.338830000000     0.0473271  
H310     H      0.687880000000     0.365160000000     0.299170000000     0.0411353  
H311     H      0.632020000000     0.278470000000     0.325270000000     0.0413588  
H312     H      0.601290000000     0.310200000000     0.365720000000     0.0475386  
H313     H      0.809590000000     0.379080000000     0.118490000000     0.0471992  
H314     H      0.776790000000     0.346640000000     0.156970000000     0.0402303  
H315     H      0.863160000000     0.290390000000     0.183330000000     0.0420025  
H316     H      0.896170000000     0.323560000000     0.145880000000     0.0470518  
H317     H      0.850880000000     0.420390000000     0.116750000000     0.0472296  
H318     H      0.883310000000     0.453200000000     0.078270000000     0.0402362  
H319     H      0.939660000000     0.366910000000     0.051950000000     0.0420083  
H320     H      0.906500000000     0.333890000000     0.089380000000     0.0470985  
H321     H      0.629350000000     0.059440000000     0.616750000000     0.0472122  
H322     H      0.596920000000     0.026630000000     0.578270000000     0.0402362  
H323     H      0.540570000000     0.112930000000     0.551950000000     0.0419829  
H324     H      0.573730000000     0.145940000000     0.589390000000     0.0470928  
H325     H      0.670630000000     0.100750000000     0.618500000000     0.0472315  
H326     H      0.703430000000     0.133190000000     0.656980000000     0.0402474  
H327     H      0.617060000000     0.189440000000     0.683330000000     0.0420049  
H328     H      0.584050000000     0.156260000000     0.645890000000     0.0470721  
H329     H      0.579680000000     0.143890000000     0.896370000000     0.047367   
H330     H      0.547440000000     0.113100000000     0.936410000000     0.0407782  
H331     H      0.602130000000     0.025040000000     0.912680000000     0.0411466  
H332     H      0.633580000000     0.055560000000     0.871500000000     0.0473801  
H333     H      0.674480000000     0.096460000000     0.863740000000     0.0473841  
H334     H      0.704990000000     0.127930000000     0.822570000000     0.0411587  
H335     H      0.616880000000     0.182580000000     0.798870000000     0.0407824  
H336     H      0.586100000000     0.150330000000     0.838910000000     0.0473771  
H337     H      0.668450000000     0.377040000000     0.618120000000     0.0472126  
H338     H      0.701530000000     0.344930000000     0.656520000000     0.0403541  
H339     H      0.615640000000     0.288170000000     0.683310000000     0.0418337  
H340     H      0.582260000000     0.321100000000     0.645840000000     0.0470543  
H341     H      0.571240000000     0.332120000000     0.589430000000     0.047094   
H342     H      0.538320000000     0.365500000000     0.551960000000     0.0418499  
H343     H      0.595200000000     0.451310000000     0.578710000000     0.0403788  
H344     H      0.627300000000     0.418220000000     0.617120000000     0.0471761  
H345     H      0.897970000000     0.158720000000     0.645880000000     0.0470309  
H346     H      0.864590000000     0.191650000000     0.683350000000     0.0418638  
H347     H      0.778700000000     0.134900000000     0.656550000000     0.0403955  
H348     H      0.811780000000     0.102780000000     0.618150000000     0.0471837  
H349     H      0.852930000000     0.061600000000     0.617150000000     0.0471614  
H350     H      0.885030000000     0.028520000000     0.578730000000     0.0404103  
H351     H      0.941910000000     0.114330000000     0.552000000000     0.0418675  
H352     H      0.909000000000     0.147710000000     0.589480000000     0.0470402  
H353     H      0.846620000000     0.424290000000     0.871500000000     0.0473712  
H354     H      0.878080000000     0.454810000000     0.912680000000     0.041138   
H355     H      0.932760000000     0.366740000000     0.936410000000     0.0407649  
H356     H      0.900520000000     0.335960000000     0.896370000000     0.0473649  
H357     H      0.894110000000     0.329530000000     0.838900000000     0.0473471  
H358     H      0.863330000000     0.297280000000     0.798870000000     0.0407694  
H359     H      0.775210000000     0.351920000000     0.822560000000     0.0411497  
H360     H      0.805720000000     0.383390000000     0.863740000000     0.0473625  
H361     H      0.878880000000     0.169670000000     0.865780000000     0.0475602  
H362     H      0.848160000000     0.201400000000     0.825310000000     0.0413344  
H363     H      0.792330000000     0.114690000000     0.799200000000     0.0411514  
H364     H      0.824040000000     0.082530000000     0.838870000000     0.0473375  
H365     H      0.832650000000     0.073910000000     0.896460000000     0.0473207  
H366     H      0.864820000000     0.042170000000     0.936110000000     0.0411497  
H367     H      0.951560000000     0.097980000000     0.910030000000     0.0413591  
H368     H      0.919840000000     0.128730000000     0.869590000000     0.0475085  
H369     H      0.560350000000     0.351150000000     0.869530000000     0.0475252  
H370     H      0.528630000000     0.381890000000     0.909990000000     0.0413765  
H371     H      0.615380000000     0.437670000000     0.936080000000     0.0411411  
H372     H      0.647550000000     0.405940000000     0.896420000000     0.0472849  
H373     H      0.656160000000     0.397330000000     0.838830000000     0.0473264  
H374     H      0.687880000000     0.365160000000     0.799170000000     0.0411366  
H375     H      0.632020000000     0.278470000000     0.825270000000     0.0413564  
H376     H      0.601290000000     0.310200000000     0.865720000000     0.0475297  
H377     H      0.809590000000     0.379080000000     0.618490000000     0.0471911  
H378     H      0.776790000000     0.346640000000     0.656970000000     0.0402215  
H379     H      0.863160000000     0.290390000000     0.683330000000     0.041995   
H380     H      0.896170000000     0.323560000000     0.645880000000     0.0470547  
H381     H      0.850880000000     0.420390000000     0.616750000000     0.0472279  
H382     H      0.883310000000     0.453200000000     0.578270000000     0.0402243  
H383     H      0.939660000000     0.366910000000     0.551940000000     0.0419815  
H384     H      0.906500000000     0.333890000000     0.589380000000     0.0470883  
H385     H      0.629350000000     0.559440000000     0.116750000000     0.0472027  
H386     H      0.596920000000     0.526630000000     0.078270000000     0.0402398  
H387     H      0.540570000000     0.612930000000     0.051950000000     0.0420224  
H388     H      0.573730000000     0.645940000000     0.089380000000     0.0471003  
H389     H      0.670630000000     0.600750000000     0.118500000000     0.0472132  
H390     H      0.703430000000     0.633190000000     0.156980000000     0.0402519  
H391     H      0.617060000000     0.689440000000     0.183330000000     0.0420081  
H392     H      0.584050000000     0.656260000000     0.145890000000     0.0470722  
H393     H      0.579680000000     0.643890000000     0.396370000000     0.0473726  
H394     H      0.547440000000     0.613100000000     0.436410000000     0.0408012  
H395     H      0.602130000000     0.525040000000     0.412680000000     0.0411403  
H396     H      0.633580000000     0.555560000000     0.371500000000     0.0473692  
H397     H      0.674480000000     0.596460000000     0.363740000000     0.0473899  
H398     H      0.704990000000     0.627930000000     0.322570000000     0.0411575  
H399     H      0.616880000000     0.682580000000     0.298870000000     0.0407802  
H400     H      0.586100000000     0.650330000000     0.338910000000     0.0473788  
H401     H      0.668450000000     0.877040000000     0.118120000000     0.0472207  
H402     H      0.701530000000     0.844930000000     0.156520000000     0.0403619  
H403     H      0.615640000000     0.788170000000     0.183310000000     0.0418382  
H404     H      0.582260000000     0.821100000000     0.145840000000     0.0470557  
H405     H      0.571240000000     0.832110000000     0.089430000000     0.0470672  
H406     H      0.538320000000     0.865500000000     0.051970000000     0.0418976  
H407     H      0.595200000000     0.951310000000     0.078710000000     0.0403889  
H408     H      0.627300000000     0.918220000000     0.117120000000     0.0471639  
H409     H      0.897970000000     0.658720000000     0.145880000000     0.0470331  
H410     H      0.864590000000     0.691650000000     0.183350000000     0.0418622  
H411     H      0.778700000000     0.634900000000     0.156550000000     0.040393   
H412     H      0.811780000000     0.602780000000     0.118150000000     0.0471907  
H413     H      0.852930000000     0.561600000000     0.117150000000     0.0471569  
H414     H      0.885030000000     0.528520000000     0.078730000000     0.0404062  
H415     H      0.941910000000     0.614330000000     0.052000000000     0.041894   
H416     H      0.909000000000     0.647710000000     0.089480000000     0.0470543  
H417     H      0.846620000000     0.924290000000     0.371500000000     0.047366   
H418     H      0.878080000000     0.954810000000     0.412680000000     0.0411242  
H419     H      0.932760000000     0.866740000000     0.436410000000     0.0407748  
H420     H      0.900520000000     0.835960000000     0.396370000000     0.047375   
H421     H      0.894110000000     0.829530000000     0.338900000000     0.0473376  
H422     H      0.863330000000     0.797280000000     0.298870000000     0.0407832  
H423     H      0.775210000000     0.851920000000     0.322560000000     0.0411605  
H424     H      0.805720000000     0.883390000000     0.363740000000     0.0473615  
H425     H      0.878880000000     0.669670000000     0.365780000000     0.0475731  
H426     H      0.848160000000     0.701400000000     0.325310000000     0.0413288  
H427     H      0.792330000000     0.614690000000     0.299200000000     0.0411394  
H428     H      0.824040000000     0.582530000000     0.338870000000     0.0473338  
H429     H      0.832650000000     0.573910000000     0.396460000000     0.0473253  
H430     H      0.864820000000     0.542170000000     0.436110000000     0.0411587  
H431     H      0.951560000000     0.597980000000     0.410030000000     0.0413632  
H432     H      0.919840000000     0.628730000000     0.369590000000     0.0475092  
H433     H      0.560350000000     0.851150000000     0.369530000000     0.0475232  
H434     H      0.528630000000     0.881890000000     0.409990000000     0.0413924  
H435     H      0.615380000000     0.937670000000     0.436080000000     0.0411597  
H436     H      0.647550000000     0.905940000000     0.396420000000     0.0472869  
H437     H      0.656160000000     0.897330000000     0.338830000000     0.0473214  
H438     H      0.687880000000     0.865160000000     0.299170000000     0.0411316  
H439     H      0.632020000000     0.778470000000     0.325270000000     0.0413591  
H440     H      0.601290000000     0.810200000000     0.365720000000     0.0475398  
H441     H      0.809590000000     0.879070000000     0.118490000000     0.0472218  
H442     H      0.776790000000     0.846640000000     0.156970000000     0.040222   
H443     H      0.863160000000     0.790390000000     0.183330000000     0.0420002  
H444     H      0.896170000000     0.823560000000     0.145880000000     0.0470537  
H445     H      0.850880000000     0.920390000000     0.116750000000     0.0472253  
H446     H      0.883310000000     0.953200000000     0.078270000000     0.0402169  
H447     H      0.939660000000     0.866910000000     0.051950000000     0.0420027  
H448     H      0.906500000000     0.833890000000     0.089380000000     0.0470994  
H449     H      0.629350000000     0.559440000000     0.616750000000     0.0472013  
H450     H      0.596920000000     0.526630000000     0.578270000000     0.0402253  
H451     H      0.540570000000     0.612930000000     0.551950000000     0.0419978  
H452     H      0.573730000000     0.645940000000     0.589390000000     0.0470876  
H453     H      0.670630000000     0.600750000000     0.618500000000     0.0472024  
H454     H      0.703430000000     0.633190000000     0.656980000000     0.0402472  
H455     H      0.617060000000     0.689440000000     0.683330000000     0.0420061  
H456     H      0.584050000000     0.656260000000     0.645890000000     0.0470692  
H457     H      0.579680000000     0.643890000000     0.896370000000     0.0473678  
H458     H      0.547440000000     0.613100000000     0.936410000000     0.0407779  
H459     H      0.602130000000     0.525040000000     0.912680000000     0.041132   
H460     H      0.633580000000     0.555560000000     0.871500000000     0.0473721  
H461     H      0.674480000000     0.596460000000     0.863740000000     0.0473799  
H462     H      0.704990000000     0.627930000000     0.822570000000     0.0411568  
H463     H      0.616880000000     0.682580000000     0.798870000000     0.0407822  
H464     H      0.586100000000     0.650330000000     0.838910000000     0.047376   
H465     H      0.668450000000     0.877040000000     0.618120000000     0.0472115  
H466     H      0.701530000000     0.844930000000     0.656520000000     0.0403513  
H467     H      0.615640000000     0.788170000000     0.683310000000     0.0418327  
H468     H      0.582260000000     0.821100000000     0.645840000000     0.0470563  
H469     H      0.571240000000     0.832110000000     0.589430000000     0.0470549  
H470     H      0.538320000000     0.865500000000     0.551960000000     0.041874   
H471     H      0.595200000000     0.951310000000     0.578710000000     0.0403773  
H472     H      0.627300000000     0.918220000000     0.617120000000     0.0471613  
H473     H      0.897970000000     0.658720000000     0.645880000000     0.0470299  
H474     H      0.864590000000     0.691650000000     0.683350000000     0.0418631  
H475     H      0.778700000000     0.634900000000     0.656550000000     0.0403934  
H476     H      0.811780000000     0.602780000000     0.618150000000     0.0471797  
H477     H      0.852930000000     0.561600000000     0.617150000000     0.0471537  
H478     H      0.885030000000     0.528520000000     0.578730000000     0.0403957  
H479     H      0.941910000000     0.614330000000     0.552000000000     0.0418673  
H480     H      0.909000000000     0.647710000000     0.589480000000     0.0470409  
H481     H      0.846620000000     0.924290000000     0.871500000000     0.0473689  
H482     H      0.878080000000     0.954810000000     0.912680000000     0.041116   
H483     H      0.932760000000     0.866740000000     0.936410000000     0.0407509  
H484     H      0.900520000000     0.835960000000     0.896370000000     0.0473703  
H485     H      0.894110000000     0.829530000000     0.838900000000     0.047335   
H486     H      0.863330000000     0.797280000000     0.798870000000     0.0407854  
H487     H      0.775210000000     0.851920000000     0.822560000000     0.0411602  
H488     H      0.805720000000     0.883390000000     0.863740000000     0.0473515  
H489     H      0.878880000000     0.669670000000     0.865780000000     0.0475634  
H490     H      0.848160000000     0.701400000000     0.825310000000     0.0413289  
H491     H      0.792330000000     0.614690000000     0.799200000000     0.0411416  
H492     H      0.824040000000     0.582530000000     0.838870000000     0.047332   
H493     H      0.832650000000     0.573910000000     0.896460000000     0.0473153  
H494     H      0.864820000000     0.542170000000     0.936110000000     0.0411388  
H495     H      0.951560000000     0.597980000000     0.910030000000     0.041357   
H496     H      0.919840000000     0.628730000000     0.869590000000     0.0475073  
H497     H      0.560350000000     0.851150000000     0.869530000000     0.0475211  
H498     H      0.528630000000     0.881890000000     0.909990000000     0.0413864  
H499     H      0.615380000000     0.937670000000     0.936080000000     0.0411398  
H500     H      0.647550000000     0.905940000000     0.896420000000     0.0472766  
H501     H      0.656160000000     0.897330000000     0.838830000000     0.0473206  
H502     H      0.687880000000     0.865160000000     0.799170000000     0.0411329  
H503     H      0.632020000000     0.778470000000     0.825270000000     0.0413567  
H504     H      0.601290000000     0.810200000000     0.865720000000     0.0475309  
H505     H      0.809590000000     0.879070000000     0.618490000000     0.0472137  
H506     H      0.776790000000     0.846640000000     0.656970000000     0.0402132  
H507     H      0.863160000000     0.790390000000     0.683330000000     0.0419927  
H508     H      0.896170000000     0.823560000000     0.645880000000     0.0470566  
H509     H      0.850880000000     0.920390000000     0.616750000000     0.0472235  
H510     H      0.883310000000     0.953200000000     0.578270000000     0.0402049  
H511     H      0.939660000000     0.866910000000     0.551940000000     0.0419759  
H512     H      0.906500000000     0.833890000000     0.589380000000     0.0470892  
O1       O      0.422690000000     0.460690000000     0.029330000000    -0.357678   
O2       O      0.057530000000     0.019140000000     0.029330000000    -0.357544   
O3       O      0.019350000000     0.419070000000     0.025050000000    -0.35615    
O4       O      0.460870000000     0.060770000000     0.025070000000    -0.356049   
O5       O      0.056580000000     0.459160000000     0.029520000000    -0.357945   
O6       O      0.423640000000     0.020670000000     0.029540000000    -0.35771    
O7       O      0.020960000000     0.059890000000     0.025240000000    -0.355558   
O8       O      0.459250000000     0.419940000000     0.025240000000    -0.355572   
O9       O      0.418550000000     0.022250000000     0.462800000000    -0.349634   
O10      O      0.061650000000     0.457600000000     0.462780000000    -0.349863   
O11      O      0.455700000000     0.419730000000     0.461070000000    -0.352649   
O12      O      0.024510000000     0.060110000000     0.461070000000    -0.352623   
O13      O      0.061720000000     0.019750000000     0.461540000000    -0.349787   
O14      O      0.418490000000     0.460100000000     0.461540000000    -0.349751   
O15      O      0.458880000000     0.059250000000     0.458590000000    -0.354918   
O16      O      0.021320000000     0.420610000000     0.458560000000    -0.355039   
O17      O      0.490110000000     0.489920000000     0.979370000000    -0.588309   
O18      O      0.269330000000     0.307300000000     0.205930000000    -0.357735   
O19      O      0.210890000000     0.172540000000     0.205930000000    -0.357792   
O20      O      0.311000000000     0.210680000000     0.210230000000    -0.356088   
O21      O      0.169220000000     0.269160000000     0.210220000000    -0.356123   
O22      O      0.270870000000     0.173480000000     0.205750000000    -0.358      
O23      O      0.209350000000     0.306350000000     0.205730000000    -0.358053   
O24      O      0.170110000000     0.209070000000     0.210030000000    -0.355745   
O25      O      0.310110000000     0.270770000000     0.210030000000    -0.355645   
O26      O      0.207780000000     0.311440000000     0.272480000000    -0.35       
O27      O      0.272430000000     0.168400000000     0.272500000000    -0.349846   
O28      O      0.310320000000     0.274330000000     0.274200000000    -0.352697   
O29      O      0.169890000000     0.205520000000     0.274200000000    -0.352646   
O30      O      0.210270000000     0.168330000000     0.273730000000    -0.349933   
O31      O      0.269940000000     0.311520000000     0.273720000000    -0.349862   
O32      O      0.170760000000     0.271140000000     0.276700000000    -0.354909   
O33      O      0.309440000000     0.208710000000     0.276720000000    -0.355108   
O34      O      0.240110000000     0.239920000000     0.255910000000    -0.588349   
O35      O      0.422690000000     0.460690000000     0.529330000000    -0.357788   
O36      O      0.057530000000     0.019140000000     0.529330000000    -0.357679   
O37      O      0.019350000000     0.419070000000     0.525050000000    -0.356183   
O38      O      0.460870000000     0.060770000000     0.525070000000    -0.356152   
O39      O      0.056580000000     0.459160000000     0.529520000000    -0.357987   
O40      O      0.423640000000     0.020670000000     0.529540000000    -0.357818   
O41      O      0.020960000000     0.059890000000     0.525250000000    -0.355673   
O42      O      0.459250000000     0.419940000000     0.525240000000    -0.355689   
O43      O      0.418550000000     0.022250000000     0.962800000000    -0.349639   
O44      O      0.061650000000     0.457600000000     0.962780000000    -0.34987    
O45      O      0.455700000000     0.419730000000     0.961070000000    -0.352655   
O46      O      0.024510000000     0.060110000000     0.961070000000    -0.352622   
O47      O      0.061720000000     0.019750000000     0.961540000000    -0.349788   
O48      O      0.418490000000     0.460100000000     0.961540000000    -0.349753   
O49      O      0.458880000000     0.059250000000     0.958590000000    -0.354925   
O50      O      0.021320000000     0.420610000000     0.958560000000    -0.355042   
O51      O      0.490110000000     0.489920000000     0.479370000000    -0.588369   
O52      O      0.269330000000     0.307300000000     0.705930000000    -0.35776    
O53      O      0.210890000000     0.172540000000     0.705930000000    -0.35785    
O54      O      0.311000000000     0.210680000000     0.710240000000    -0.356142   
O55      O      0.169220000000     0.269160000000     0.710220000000    -0.356058   
O56      O      0.270870000000     0.173480000000     0.705750000000    -0.358041   
O57      O      0.209350000000     0.306350000000     0.705730000000    -0.358      
O58      O      0.170110000000     0.209070000000     0.710030000000    -0.355758   
O59      O      0.310110000000     0.270770000000     0.710030000000    -0.355719   
O60      O      0.207780000000     0.311440000000     0.772480000000    -0.349992   
O61      O      0.272430000000     0.168400000000     0.772500000000    -0.349776   
O62      O      0.310320000000     0.274330000000     0.774200000000    -0.352642   
O63      O      0.169890000000     0.205520000000     0.774200000000    -0.352634   
O64      O      0.210270000000     0.168330000000     0.773730000000    -0.349873   
O65      O      0.269940000000     0.311520000000     0.773720000000    -0.34985    
O66      O      0.170760000000     0.271140000000     0.776700000000    -0.354903   
O67      O      0.309440000000     0.208710000000     0.776720000000    -0.35503    
O68      O      0.240110000000     0.239920000000     0.755910000000    -0.588306   
O69      O      0.422690000000     0.960690000000     0.029330000000    -0.357585   
O70      O      0.057530000000     0.519140000000     0.029330000000    -0.357583   
O71      O      0.019350000000     0.919060000000     0.025050000000    -0.356036   
O72      O      0.460870000000     0.560770000000     0.025070000000    -0.35605    
O73      O      0.056580000000     0.959160000000     0.029520000000    -0.357923   
O74      O      0.423640000000     0.520670000000     0.029540000000    -0.357746   
O75      O      0.020960000000     0.559890000000     0.025240000000    -0.355556   
O76      O      0.459250000000     0.919940000000     0.025240000000    -0.355587   
O77      O      0.418550000000     0.522250000000     0.462800000000    -0.349676   
O78      O      0.061650000000     0.957600000000     0.462780000000    -0.349844   
O79      O      0.455700000000     0.919740000000     0.461070000000    -0.352748   
O80      O      0.024510000000     0.560110000000     0.461070000000    -0.352625   
O81      O      0.061720000000     0.519750000000     0.461540000000    -0.349829   
O82      O      0.418490000000     0.960100000000     0.461540000000    -0.349783   
O83      O      0.458880000000     0.559250000000     0.458590000000    -0.35492    
O84      O      0.021320000000     0.920600000000     0.458560000000    -0.354936   
O85      O      0.490110000000     0.989920000000     0.979370000000    -0.58832    
O86      O      0.269330000000     0.807300000000     0.205930000000    -0.357737   
O87      O      0.210890000000     0.672540000000     0.205930000000    -0.357794   
O88      O      0.311000000000     0.710680000000     0.210230000000    -0.356089   
O89      O      0.169220000000     0.769160000000     0.210220000000    -0.356123   
O90      O      0.270870000000     0.673480000000     0.205750000000    -0.358002   
O91      O      0.209350000000     0.806350000000     0.205730000000    -0.358055   
O92      O      0.170110000000     0.709070000000     0.210030000000    -0.355745   
O93      O      0.310110000000     0.770770000000     0.210030000000    -0.355645   
O94      O      0.207780000000     0.811440000000     0.272480000000    -0.350001   
O95      O      0.272430000000     0.668400000000     0.272500000000    -0.34986    
O96      O      0.310320000000     0.774330000000     0.274200000000    -0.352693   
O97      O      0.169890000000     0.705520000000     0.274200000000    -0.352646   
O98      O      0.210270000000     0.668330000000     0.273730000000    -0.349934   
O99      O      0.269940000000     0.811520000000     0.273720000000    -0.349858   
O100     O      0.170760000000     0.771140000000     0.276700000000    -0.354908   
O101     O      0.309440000000     0.708710000000     0.276720000000    -0.355004   
O102     O      0.240110000000     0.739920000000     0.255910000000    -0.588345   
O103     O      0.422690000000     0.960690000000     0.529330000000    -0.357695   
O104     O      0.057530000000     0.519140000000     0.529330000000    -0.357719   
O105     O      0.019350000000     0.919060000000     0.525050000000    -0.356068   
O106     O      0.460870000000     0.560770000000     0.525070000000    -0.356152   
O107     O      0.056580000000     0.959160000000     0.529520000000    -0.357964   
O108     O      0.423640000000     0.520670000000     0.529540000000    -0.357854   
O109     O      0.020960000000     0.559890000000     0.525250000000    -0.355671   
O110     O      0.459250000000     0.919940000000     0.525240000000    -0.355703   
O111     O      0.418550000000     0.522250000000     0.962800000000    -0.349681   
O112     O      0.061650000000     0.957600000000     0.962780000000    -0.349852   
O113     O      0.455700000000     0.919740000000     0.961070000000    -0.352754   
O114     O      0.024510000000     0.560110000000     0.961070000000    -0.352624   
O115     O      0.061720000000     0.519750000000     0.961540000000    -0.34983    
O116     O      0.418490000000     0.960100000000     0.961540000000    -0.349785   
O117     O      0.458880000000     0.559250000000     0.958590000000    -0.354927   
O118     O      0.021320000000     0.920600000000     0.958560000000    -0.35494    
O119     O      0.490110000000     0.989920000000     0.479370000000    -0.58838    
O120     O      0.269330000000     0.807300000000     0.705930000000    -0.357762   
O121     O      0.210890000000     0.672540000000     0.705930000000    -0.357852   
O122     O      0.311000000000     0.710680000000     0.710240000000    -0.356142   
O123     O      0.169220000000     0.769160000000     0.710220000000    -0.356058   
O124     O      0.270870000000     0.673480000000     0.705750000000    -0.358043   
O125     O      0.209350000000     0.806350000000     0.705730000000    -0.358001   
O126     O      0.170110000000     0.709070000000     0.710030000000    -0.355758   
O127     O      0.310110000000     0.770770000000     0.710030000000    -0.355719   
O128     O      0.207780000000     0.811440000000     0.772480000000    -0.349993   
O129     O      0.272430000000     0.668400000000     0.772500000000    -0.34979    
O130     O      0.310320000000     0.774330000000     0.774200000000    -0.352638   
O131     O      0.169890000000     0.705520000000     0.774200000000    -0.352634   
O132     O      0.210270000000     0.668330000000     0.773730000000    -0.349873   
O133     O      0.269940000000     0.811520000000     0.773720000000    -0.349846   
O134     O      0.170760000000     0.771140000000     0.776700000000    -0.354903   
O135     O      0.309440000000     0.708710000000     0.776720000000    -0.354925   
O136     O      0.240110000000     0.739920000000     0.755910000000    -0.588302   
O137     O      0.922690000000     0.460690000000     0.029330000000    -0.357734   
O138     O      0.557530000000     0.019140000000     0.029330000000    -0.357597   
O139     O      0.519350000000     0.419070000000     0.025050000000    -0.356189   
O140     O      0.960870000000     0.060770000000     0.025070000000    -0.356057   
O141     O      0.556580000000     0.459160000000     0.029520000000    -0.357948   
O142     O      0.923640000000     0.020670000000     0.029540000000    -0.357764   
O143     O      0.520970000000     0.059890000000     0.025240000000    -0.355678   
O144     O      0.959250000000     0.419940000000     0.025240000000    -0.355588   
O145     O      0.918550000000     0.022250000000     0.462800000000    -0.349697   
O146     O      0.561650000000     0.457600000000     0.462780000000    -0.349865   
O147     O      0.955700000000     0.419730000000     0.461070000000    -0.352665   
O148     O      0.524510000000     0.060110000000     0.461070000000    -0.352653   
O149     O      0.561720000000     0.019750000000     0.461540000000    -0.349788   
O150     O      0.918490000000     0.460100000000     0.461540000000    -0.349815   
O151     O      0.958880000000     0.059250000000     0.458590000000    -0.354933   
O152     O      0.521320000000     0.420610000000     0.458560000000    -0.355075   
O153     O      0.990110000000     0.489920000000     0.979370000000    -0.588282   
O154     O      0.769330000000     0.307300000000     0.205930000000    -0.357733   
O155     O      0.710890000000     0.172540000000     0.205930000000    -0.357791   
O156     O      0.811000000000     0.210680000000     0.210230000000    -0.356089   
O157     O      0.669230000000     0.269160000000     0.210220000000    -0.35624    
O158     O      0.770870000000     0.173480000000     0.205750000000    -0.357999   
O159     O      0.709350000000     0.306350000000     0.205730000000    -0.358082   
O160     O      0.670110000000     0.209070000000     0.210030000000    -0.355748   
O161     O      0.810110000000     0.270770000000     0.210030000000    -0.355646   
O162     O      0.707780000000     0.311440000000     0.272480000000    -0.349905   
O163     O      0.772430000000     0.168400000000     0.272500000000    -0.349846   
O164     O      0.810320000000     0.274330000000     0.274200000000    -0.352687   
O165     O      0.669890000000     0.205520000000     0.274200000000    -0.352656   
O166     O      0.710270000000     0.168330000000     0.273730000000    -0.349935   
O167     O      0.769940000000     0.311520000000     0.273720000000    -0.349856   
O168     O      0.670760000000     0.271140000000     0.276700000000    -0.354928   
O169     O      0.809440000000     0.208710000000     0.276720000000    -0.35511    
O170     O      0.740110000000     0.239920000000     0.255910000000    -0.588351   
O171     O      0.922690000000     0.460690000000     0.529330000000    -0.357844   
O172     O      0.557530000000     0.019140000000     0.529330000000    -0.357732   
O173     O      0.519350000000     0.419070000000     0.525050000000    -0.356222   
O174     O      0.960870000000     0.060770000000     0.525070000000    -0.356159   
O175     O      0.556580000000     0.459160000000     0.529520000000    -0.35799    
O176     O      0.923640000000     0.020670000000     0.529540000000    -0.357872   
O177     O      0.520970000000     0.059890000000     0.525250000000    -0.355793   
O178     O      0.959250000000     0.419940000000     0.525240000000    -0.355705   
O179     O      0.918550000000     0.022250000000     0.962800000000    -0.349701   
O180     O      0.561650000000     0.457600000000     0.962780000000    -0.349872   
O181     O      0.955700000000     0.419730000000     0.961070000000    -0.352671   
O182     O      0.524510000000     0.060110000000     0.961070000000    -0.352653   
O183     O      0.561720000000     0.019750000000     0.961540000000    -0.349789   
O184     O      0.918490000000     0.460100000000     0.961540000000    -0.349817   
O185     O      0.958880000000     0.059250000000     0.958590000000    -0.35494    
O186     O      0.521320000000     0.420610000000     0.958560000000    -0.355079   
O187     O      0.990110000000     0.489920000000     0.479370000000    -0.588342   
O188     O      0.769330000000     0.307300000000     0.705930000000    -0.357758   
O189     O      0.710890000000     0.172540000000     0.705930000000    -0.357849   
O190     O      0.811000000000     0.210680000000     0.710240000000    -0.356143   
O191     O      0.669230000000     0.269160000000     0.710220000000    -0.356175   
O192     O      0.770870000000     0.173480000000     0.705750000000    -0.35804    
O193     O      0.709350000000     0.306350000000     0.705730000000    -0.358029   
O194     O      0.670110000000     0.209070000000     0.710030000000    -0.355761   
O195     O      0.810110000000     0.270770000000     0.710030000000    -0.35572    
O196     O      0.707780000000     0.311440000000     0.772480000000    -0.349897   
O197     O      0.772430000000     0.168400000000     0.772500000000    -0.349776   
O198     O      0.810320000000     0.274330000000     0.774200000000    -0.352632   
O199     O      0.669890000000     0.205520000000     0.774200000000    -0.352644   
O200     O      0.710270000000     0.168330000000     0.773730000000    -0.349874   
O201     O      0.769940000000     0.311520000000     0.773720000000    -0.349844   
O202     O      0.670760000000     0.271140000000     0.776700000000    -0.354922   
O203     O      0.809440000000     0.208710000000     0.776720000000    -0.355031   
O204     O      0.740110000000     0.239920000000     0.755910000000    -0.588308   
O205     O      0.922690000000     0.960690000000     0.029330000000    -0.357641   
O206     O      0.557530000000     0.519140000000     0.029330000000    -0.357636   
O207     O      0.519350000000     0.919060000000     0.025050000000    -0.356075   
O208     O      0.960870000000     0.560770000000     0.025070000000    -0.356058   
O209     O      0.556580000000     0.959160000000     0.029520000000    -0.357925   
O210     O      0.923640000000     0.520670000000     0.029540000000    -0.357801   
O211     O      0.520970000000     0.559890000000     0.025240000000    -0.355676   
O212     O      0.959250000000     0.919940000000     0.025240000000    -0.355602   
O213     O      0.918550000000     0.522250000000     0.462800000000    -0.349738   
O214     O      0.561650000000     0.957600000000     0.462780000000    -0.349846   
O215     O      0.955700000000     0.919740000000     0.461070000000    -0.352764   
O216     O      0.524510000000     0.560110000000     0.461070000000    -0.352655   
O217     O      0.561720000000     0.519750000000     0.461540000000    -0.34983    
O218     O      0.918490000000     0.960100000000     0.461540000000    -0.349846   
O219     O      0.958880000000     0.559250000000     0.458590000000    -0.354935   
O220     O      0.521320000000     0.920600000000     0.458560000000    -0.354973   
O221     O      0.990110000000     0.989920000000     0.979370000000    -0.588293   
O222     O      0.769330000000     0.807300000000     0.205930000000    -0.357735   
O223     O      0.710890000000     0.672540000000     0.205930000000    -0.357793   
O224     O      0.811000000000     0.710680000000     0.210230000000    -0.356089   
O225     O      0.669230000000     0.769160000000     0.210220000000    -0.35624    
O226     O      0.770870000000     0.673480000000     0.205750000000    -0.358001   
O227     O      0.709350000000     0.806350000000     0.205730000000    -0.358084   
O228     O      0.670110000000     0.709070000000     0.210030000000    -0.355747   
O229     O      0.810110000000     0.770770000000     0.210030000000    -0.355646   
O230     O      0.707780000000     0.811440000000     0.272480000000    -0.349906   
O231     O      0.772430000000     0.668400000000     0.272500000000    -0.34986    
O232     O      0.810320000000     0.774330000000     0.274200000000    -0.352683   
O233     O      0.669890000000     0.705520000000     0.274200000000    -0.352656   
O234     O      0.710270000000     0.668330000000     0.273730000000    -0.349936   
O235     O      0.769940000000     0.811520000000     0.273720000000    -0.349852   
O236     O      0.670760000000     0.771140000000     0.276700000000    -0.354928   
O237     O      0.809440000000     0.708710000000     0.276720000000    -0.355005   
O238     O      0.740110000000     0.739920000000     0.255910000000    -0.588347   
O239     O      0.922690000000     0.960690000000     0.529330000000    -0.357751   
O240     O      0.557530000000     0.519140000000     0.529330000000    -0.357772   
O241     O      0.519350000000     0.919060000000     0.525050000000    -0.356108   
O242     O      0.960870000000     0.560770000000     0.525070000000    -0.35616    
O243     O      0.556580000000     0.959160000000     0.529520000000    -0.357967   
O244     O      0.923640000000     0.520670000000     0.529540000000    -0.357909   
O245     O      0.520970000000     0.559890000000     0.525250000000    -0.355791   
O246     O      0.959250000000     0.919940000000     0.525240000000    -0.355719   
O247     O      0.918550000000     0.522250000000     0.962800000000    -0.349743   
O248     O      0.561650000000     0.957600000000     0.962780000000    -0.349854   
O249     O      0.955700000000     0.919740000000     0.961070000000    -0.35277    
O250     O      0.524510000000     0.560110000000     0.961070000000    -0.352655   
O251     O      0.561720000000     0.519750000000     0.961540000000    -0.349831   
O252     O      0.918490000000     0.960100000000     0.961540000000    -0.349849   
O253     O      0.958880000000     0.559250000000     0.958590000000    -0.354942   
O254     O      0.521320000000     0.920600000000     0.958560000000    -0.354977   
O255     O      0.990110000000     0.989920000000     0.479370000000    -0.588353   
O256     O      0.769330000000     0.807300000000     0.705930000000    -0.35776    
O257     O      0.710890000000     0.672540000000     0.705930000000    -0.357851   
O258     O      0.811000000000     0.710680000000     0.710240000000    -0.356143   
O259     O      0.669230000000     0.769160000000     0.710220000000    -0.356175   
O260     O      0.770870000000     0.673480000000     0.705750000000    -0.358042   
O261     O      0.709350000000     0.806350000000     0.705730000000    -0.35803    
O262     O      0.670110000000     0.709070000000     0.710030000000    -0.35576    
O263     O      0.810110000000     0.770770000000     0.710030000000    -0.355719   
O264     O      0.707780000000     0.811440000000     0.772480000000    -0.349899   
O265     O      0.772430000000     0.668400000000     0.772500000000    -0.34979    
O266     O      0.810320000000     0.774330000000     0.774200000000    -0.352628   
O267     O      0.669890000000     0.705520000000     0.774200000000    -0.352644   
O268     O      0.710270000000     0.668330000000     0.773730000000    -0.349875   
O269     O      0.769940000000     0.811520000000     0.773720000000    -0.34984    
O270     O      0.670760000000     0.771140000000     0.776700000000    -0.354922   
O271     O      0.809440000000     0.708710000000     0.776720000000    -0.354926   
O272     O      0.740110000000     0.739920000000     0.755910000000    -0.588304   


