data_structure

_audit_creation_method RASPA-1.0
_audit_creation_date 2023-6-4
_audit_author_name 'Poobodin Mano'

_cell_length_a    23.5481
_cell_length_b    23.7387
_cell_length_c    23.937
_cell_angle_alpha 87.1318
_cell_angle_beta  93.8178
_cell_angle_gamma 120.436
_cell_volume      11509.2

_symmetry_cell_setting          triclinic
_symmetry_space_group_name_Hall 'P 1'
_symmetry_space_group_name_H-M  'P 1'
_symmetry_Int_Tables_number     1

_symmetry_equiv_pos_as_xyz 'x,y,z'

loop_
_atom_site_label
_atom_site_type_symbol
_atom_site_fract_x
_atom_site_fract_y
_atom_site_fract_z
_atom_site_charge
C1       C      0.020650000000     0.159970000000     0.997130000000     0.47055    
C2       C      0.891060000000     0.886750000000     0.065900000000     0.486872   
C3       C      0.038430000000     0.053880000000     0.911860000000     0.488452   
C4       C      0.898760000000     0.006740000000     0.122310000000     0.436549   
C5       C      0.063430000000     0.080060000000     0.198090000000     0.457813   
C6       C      0.158340000000     0.028430000000     0.993550000000     0.470564   
C7       C      0.148300000000     0.189860000000     0.098270000000     0.452914   
C8       C      0.043040000000     0.901650000000     0.086730000000     0.586738   
C9       C      0.100160000000     0.109380000000     0.425630000000     0.499655   
C10      C      0.075910000000     0.181700000000     0.616290000000     0.427023   
C11      C      0.933890000000     0.042720000000     0.574850000000     0.501413   
C12      C      0.257230000000     0.181210000000     0.498970000000     0.378562   
C13      C      0.241280000000     0.089630000000     0.613730000000     0.479163   
C14      C      0.964960000000     0.915930000000     0.585010000000     0.526192   
C15      C      0.098240000000     0.961980000000     0.481540000000     0.49067    
C16      C      0.130760000000     0.090600000000     0.701410000000     0.424015   
C17      C      0.866830000000     0.382610000000     0.017630000000     0.479586   
C18      C      0.040380000000     0.684510000000     0.016530000000     0.494364   
C19      C      0.862270000000     0.492040000000     0.093600000000     0.450715   
C20      C      0.041750000000     0.541420000000     0.917170000000     0.471016   
C21      C      0.145080000000     0.520680000000     0.032460000000     0.469287   
C22      C      0.011950000000     0.530270000000     0.192720000000     0.45875    
C23      C      0.986430000000     0.355380000000     0.050560000000     0.392576   
C24      C      0.139160000000     0.656280000000     0.117430000000     0.470064   
C25      C      0.957380000000     0.415460000000     0.497130000000     0.463027   
C26      C      0.113310000000     0.743360000000     0.542070000000     0.406632   
C27      C      0.957540000000     0.578660000000     0.556510000000     0.50401    
C28      C      0.077170000000     0.556870000000     0.420040000000     0.465969   
C29      C      0.222960000000     0.578990000000     0.507560000000     0.462734   
C30      C      0.045460000000     0.560990000000     0.685280000000     0.47791    
C31      C      0.063150000000     0.409720000000     0.611010000000     0.47083    
C32      C      0.231510000000     0.698320000000     0.602580000000     0.455609   
C33      C      0.389650000000     0.023520000000     0.007170000000     0.458158   
C34      C      0.516330000000     0.858260000000     0.012700000000     0.47541    
C35      C      0.533320000000     0.050710000000     0.922100000000     0.467851   
C36      C      0.384290000000     0.873440000000     0.127040000000     0.468511   
C37      C      0.515600000000     0.005140000000     0.202690000000     0.487118   
C38      C      0.658320000000     0.131790000000     0.026110000000     0.452812   
C39      C      0.467940000000     0.120180000000     0.117920000000     0.399911   
C40      C      0.651240000000     0.981320000000     0.095280000000     0.472508   
C41      C      0.441760000000     0.076650000000     0.522910000000     0.455495   
C42      C      0.612030000000     0.959460000000     0.498140000000     0.377592   
C43      C      0.554480000000     0.073960000000     0.426150000000     0.481426   
C44      C      0.473870000000     0.912910000000     0.636560000000     0.407061   
C45      C      0.578860000000     0.068840000000     0.702490000000     0.497372   
C46      C      0.711980000000     0.200380000000     0.483930000000     0.475946   
C47      C      0.557000000000     0.203080000000     0.609600000000     0.485435   
C48      C      0.709000000000     0.056060000000     0.592270000000     0.470669   
C49      C      0.369890000000     0.382060000000     0.014190000000     0.654993   
C50      C      0.518580000000     0.642870000000     0.966220000000     0.46981    
C51      C      0.386620000000     0.537600000000     0.089920000000     0.486456   
C52      C      0.536180000000     0.503560000000     0.895600000000     0.476329   
C53      C      0.630860000000     0.487230000000     0.030040000000     0.444618   
C54      C      0.516200000000     0.525380000000     0.182080000000     0.506007   
C55      C      0.475600000000     0.353490000000     0.099010000000     0.48826    
C56      C      0.632310000000     0.684160000000     0.078850000000     0.462246   
C57      C      0.477180000000     0.409130000000     0.468720000000     0.455749   
C58      C      0.601270000000     0.721440000000     0.500530000000     0.473734   
C59      C      0.456970000000     0.582760000000     0.536990000000     0.48828    
C60      C      0.596250000000     0.535800000000     0.397700000000     0.485489   
C61      C      0.731700000000     0.589910000000     0.503620000000     0.461095   
C62      C      0.527400000000     0.529280000000     0.661990000000     0.449449   
C63      C      0.550910000000     0.424380000000     0.606420000000     0.46405    
C64      C      0.720600000000     0.698460000000     0.570910000000     0.502834   
C65      C      0.472030000000     0.492050000000     0.749110000000     0.0515473  
C66      C      0.587640000000     0.551410000000     0.749490000000     0.0443463  
C67      C      0.476200000000     0.485910000000     0.807880000000     0.0399414  
C68      C      0.592710000000     0.547120000000     0.808230000000     0.0270364  
C69      C      0.502330000000     0.472270000000     0.271120000000     0.0558603  
C70      C      0.603870000000     0.566160000000     0.250740000000     0.0642031  
C71      C      0.526570000000     0.470300000000     0.325480000000     0.0484542  
C72      C      0.627930000000     0.563880000000     0.304940000000     0.0315084  
C73      C      0.639300000000     0.888000000000     0.450570000000     0.0414052  
C74      C      0.600050000000     0.864030000000     0.540990000000     0.0467808  
C75      C      0.633400000000     0.824940000000     0.449900000000     0.045998   
C76      C      0.577910000000     0.799050000000     0.533360000000     0.0287848  
C77      C      0.614200000000     0.315870000000     0.628100000000     0.041078   
C78      C      0.500490000000     0.254370000000     0.641680000000     0.0524539  
C79      C      0.612240000000     0.372970000000     0.630800000000     0.0318986  
C80      C      0.497210000000     0.311990000000     0.640740000000     0.0280931  
C81      C      0.558070000000     0.010870000000     0.843890000000     0.0438736  
C82      C      0.579100000000     0.119200000000     0.842590000000     0.0535606  
C83      C      0.577640000000     0.018900000000     0.789150000000     0.0423761  
C84      C      0.596130000000     0.126580000000     0.786770000000     0.036227   
C85      C      0.548780000000     0.100410000000     0.329000000000     0.0459446  
C86      C      0.518150000000     0.993010000000     0.357670000000     0.0500468  
C87      C      0.539770000000     0.082030000000     0.273000000000     0.0385164  
C88      C      0.507660000000     0.973530000000     0.301950000000     0.0356677  
C89      C      0.575590000000     0.803960000000     0.002340000000     0.0451326  
C90      C      0.479830000000     0.772620000000     0.945510000000     0.055712   
C91      C      0.580960000000     0.753990000000     0.979780000000     0.0410086  
C92      C      0.478780000000     0.714380000000     0.931410000000     0.0253064  
C93      C      0.527360000000     0.235480000000     0.108100000000     0.0377287  
C94      C      0.424700000000     0.186490000000     0.148870000000     0.0481815  
C95      C      0.531020000000     0.295810000000     0.106320000000     0.0369     
C96      C      0.429620000000     0.248840000000     0.149760000000     0.0283051  
C97      C      0.781490000000     0.313770000000     0.472360000000     0.0438877  
C98      C      0.825770000000     0.246460000000     0.460440000000     0.0493195  
C99      C      0.844140000000     0.368340000000     0.474190000000     0.0296483  
C100     C      0.890610000000     0.302190000000     0.463560000000     0.0190267  
C101     C      0.347570000000     0.742990000000     0.619450000000     0.0470853  
C102     C      0.296820000000     0.794790000000     0.656690000000     0.0551784  
C103     C      0.409730000000     0.796880000000     0.634220000000     0.0367747  
C104     C      0.359610000000     0.852370000000     0.664990000000     0.0255205  
C105     C      0.842810000000     0.535160000000     0.558290000000     0.0426215  
C106     C      0.905210000000     0.628420000000     0.502240000000     0.0556932  
C107     C      0.786850000000     0.538260000000     0.543190000000     0.0355159  
C108     C      0.848410000000     0.632150000000     0.486310000000     0.0286565  
C109     C      0.308660000000     0.581830000000     0.565520000000     0.0399671  
C110     C      0.317070000000     0.590960000000     0.467480000000     0.0488337  
C111     C      0.368980000000     0.585350000000     0.572560000000     0.0442017  
C112     C      0.374870000000     0.587920000000     0.473510000000     0.0462488  
C113     C      0.053150000000     0.607480000000     0.773980000000     0.0468135  
C114     C      0.039430000000     0.502480000000     0.769560000000     0.0482321  
C115     C      0.051200000000     0.600590000000     0.832310000000     0.0397798  
C116     C      0.038750000000     0.495250000000     0.827770000000     0.0305984  
C117     C      0.054490000000     0.502870000000     0.276070000000     0.0383334  
C118     C      0.011610000000     0.573150000000     0.280100000000     0.0445474  
C119     C      0.068550000000     0.508090000000     0.333750000000     0.039614   
C120     C      0.023190000000     0.576720000000     0.338340000000     0.0276139  
C121     C      0.795690000000     0.283730000000     0.965510000000     0.0363891  
C122     C      0.765930000000     0.304010000000     0.050680000000     0.0450557  
C123     C      0.746330000000     0.216450000000     0.971760000000     0.0325939  
C124     C      0.728200000000     0.237640000000     0.062150000000     0.0220794  
C125     C      0.206380000000     0.768430000000     0.143730000000     0.0464536  
C126     C      0.252670000000     0.701440000000     0.139310000000     0.0542751  
C127     C      0.270030000000     0.823990000000     0.144390000000     0.0402299  
C128     C      0.316270000000     0.756010000000     0.140900000000     0.035145   
C129     C      0.766660000000     0.452540000000     0.032540000000     0.0408687  
C130     C      0.767280000000     0.490360000000     0.121160000000     0.0467523  
C131     C      0.707010000000     0.451060000000     0.016740000000     0.0331176  
C132     C      0.710660000000     0.494280000000     0.104170000000     0.0191269  
C133     C      0.272520000000     0.492160000000     0.102390000000     0.0503022  
C134     C      0.328600000000     0.591670000000     0.053130000000     0.0578188  
C135     C      0.211830000000     0.487690000000     0.086770000000     0.0349832  
C136     C      0.266900000000     0.585840000000     0.034210000000     0.031864   
C137     C      0.823080000000     0.757640000000     0.625960000000     0.0483481  
C138     C      0.794360000000     0.804840000000     0.548770000000     0.0639433  
C139     C      0.887850000000     0.812440000000     0.626230000000     0.0440869  
C140     C      0.858920000000     0.849140000000     0.540610000000     0.0400412  
C141     C      0.365790000000     0.233340000000     0.464500000000     0.0350398  
C142     C      0.304320000000     0.286140000000     0.457450000000     0.0512683  
C143     C      0.424220000000     0.293710000000     0.458930000000     0.0391098  
C144     C      0.360700000000     0.344590000000     0.444280000000     0.0220011  
C145     C      0.812290000000     0.093490000000     0.553620000000     0.0584638  
C146     C      0.777790000000     0.015850000000     0.627560000000     0.0551771  
C147     C      0.866620000000     0.086700000000     0.547300000000     0.041002   
C148     C      0.834920000000     0.012120000000     0.624970000000     0.0410689  
C149     C      0.394300000000     0.136100000000     0.552960000000     0.0493035  
C150     C      0.335840000000     0.021470000000     0.562330000000     0.0495419  
C151     C      0.349630000000     0.139530000000     0.585120000000     0.0441114  
C152     C      0.288510000000     0.024360000000     0.593290000000     0.045465   
C153     C      0.046340000000     0.852410000000     0.514160000000     0.0619526  
C154     C      0.144070000000     0.895650000000     0.466390000000     0.0583567  
C155     C      0.055380000000     0.801110000000     0.535550000000     0.0459183  
C156     C      0.151530000000     0.841990000000     0.484540000000     0.0348586  
C157     C      0.121550000000     0.353260000000     0.606610000000     0.0470194  
C158     C      0.017730000000     0.298200000000     0.645000000000     0.0610569  
C159     C      0.123190000000     0.295540000000     0.607840000000     0.0411236  
C160     C      0.022300000000     0.240520000000     0.652150000000     0.0308556  
C161     C      0.068920000000     0.019100000000     0.775680000000     0.0342679  
C162     C      0.106500000000     0.131610000000     0.779420000000     0.0624729  
C163     C      0.039160000000     0.008620000000     0.826930000000     0.0497657  
C164     C      0.074070000000     0.120760000000     0.829180000000     0.0406865  
C165     C      0.127740000000     0.090220000000     0.282090000000     0.0380014  
C166     C      0.052480000000     0.127910000000     0.279100000000     0.0499429  
C167     C      0.138970000000     0.101030000000     0.339660000000     0.0366604  
C168     C      0.061660000000     0.136680000000     0.337510000000     0.0282354  
C169     C      0.726350000000     0.754940000000     0.027420000000     0.0421859  
C170     C      0.727140000000     0.772350000000     0.123190000000     0.0514687  
C171     C      0.789680000000     0.808400000000     0.023700000000     0.0341844  
C172     C      0.796090000000     0.814790000000     0.122450000000     0.0313033  
C173     C      0.241200000000     0.293740000000     0.111140000000     0.0412669  
C174     C      0.207280000000     0.253700000000     0.019540000000     0.063487   
C175     C      0.298890000000     0.344310000000     0.089810000000     0.0769796  
C176     C      0.257420000000     0.311180000000     0.997800000000     0.037196   
C177     C      0.821280000000     0.030010000000     0.077030000000     0.0336206  
C178     C      0.796750000000     0.978430000000     0.165620000000     0.0444223  
C179     C      0.759420000000     0.022790000000     0.069970000000     0.0377234  
C180     C      0.732630000000     0.971030000000     0.159020000000     0.032977   
C181     C      0.271370000000     0.965000000000     0.993690000000     0.0428206  
C182     C      0.331810000000     0.077940000000     0.975660000000     0.0519215  
C183     C      0.212230000000     0.966740000000     0.987400000000     0.0370324  
C184     C      0.273420000000     0.080750000000     0.972900000000     0.0292923  
C185     C      0.041090000000     0.802000000000     0.109250000000     0.0392239  
C186     C      0.049070000000     0.840380000000     0.015640000000     0.0516451  
C187     C      0.033830000000     0.744160000000     0.089750000000     0.0458644  
C188     C      0.051120000000     0.787120000000     0.996980000000     0.0183338  
C189     C      0.949350000000     0.202380000000     0.000970000000     0.0409805  
C190     C      0.059470000000     0.264390000000     0.035610000000     0.0593584  
C191     C      0.937110000000     0.248570000000     0.022170000000     0.0400122  
C192     C      0.041870000000     0.299140000000     0.068860000000     0.0244737  
Co1      Co     0.004520000000     0.095950000000     0.086170000000     1.0644     
Co2      Co     0.008380000000     0.964260000000     0.998080000000     1.22802    
Co3      Co     0.116540000000     0.111820000000     0.018700000000     1.12749    
Co4      Co     0.001330000000     0.971610000000     0.140020000000     1.08568    
Co5      Co     0.167120000000     0.083750000000     0.528530000000     1.13573    
Co6      Co     0.033820000000     0.032690000000     0.636010000000     1.11397    
Co7      Co     0.014730000000     0.024600000000     0.503090000000     1.22933    
Co8      Co     0.174710000000     0.159870000000     0.595350000000     0.891252   
Co9      Co     0.999800000000     0.453570000000     0.019970000000     1.04314    
Co10     Co     0.990110000000     0.593880000000     0.091440000000     1.11698    
Co11     Co     0.952780000000     0.443970000000     0.110640000000     0.970041   
Co12     Co     0.098760000000     0.604460000000     0.014580000000     1.14926    
Co13     Co     0.102470000000     0.492460000000     0.524670000000     1.10697    
Co14     Co     0.092810000000     0.642500000000     0.581320000000     1.04208    
Co15     Co     0.995310000000     0.486030000000     0.591710000000     1.13028    
Co16     Co     0.155270000000     0.644430000000     0.498610000000     0.943551   
Co17     Co     0.457020000000     0.015890000000     0.098570000000     0.987273   
Co18     Co     0.567480000000     0.988930000000     0.994920000000     1.05529    
Co19     Co     0.531500000000     0.095630000000     0.031900000000     0.957909   
Co20     Co     0.519780000000     0.922160000000     0.117640000000     1.15011    
Co21     Co     0.499640000000     0.060130000000     0.610200000000     1.05811    
Co22     Co     0.627290000000     0.062410000000     0.514840000000     1.08839    
Co23     Co     0.588090000000     0.166990000000     0.515050000000     1.1396     
Co24     Co     0.572040000000     0.999680000000     0.600310000000     0.908969   
Co25     Co     0.485890000000     0.419230000000     0.985390000000     1.1226     
Co26     Co     0.528320000000     0.590240000000     0.077080000000     1.04309    
Co27     Co     0.433270000000     0.449210000000     0.100860000000     1.44077    
Co28     Co     0.591580000000     0.576980000000     0.993850000000     1.06456    
Co29     Co     0.610280000000     0.494840000000     0.516600000000     1.0746     
Co30     Co     0.590590000000     0.625360000000     0.591290000000     1.09764    
Co31     Co     0.481470000000     0.486170000000     0.546870000000     1.09307    
Co32     Co     0.644220000000     0.636860000000     0.467190000000     1.15413    
H1       H      0.429990000000     0.459470000000     0.828740000000     0.0672566  
H2       H      0.423790000000     0.470540000000     0.727690000000     0.0529266  
H3       H      0.633110000000     0.577580000000     0.727730000000     0.057431   
H4       H      0.735280000000     0.663970000000     0.782790000000     0.157691   
H5       H      0.494770000000     0.432300000000     0.354230000000     0.0451799  
H6       H      0.452560000000     0.434530000000     0.259260000000     0.0596433  
H7       H      0.635850000000     0.604630000000     0.222330000000     0.0686933  
H8       H      0.796690000000     0.637140000000     0.273090000000     0.183366   
H9       H      0.652620000000     0.812500000000     0.415630000000     0.0485576  
H10      H      0.658300000000     0.920900000000     0.414790000000     0.0532662  
H11      H      0.586290000000     0.876530000000     0.578650000000     0.0636854  
H12      H      0.418690000000     0.780930000000     0.510690000000     0.171043   
H13      H      0.658630000000     0.418530000000     0.627320000000     0.0404963  
H14      H      0.661520000000     0.319830000000     0.622830000000     0.0481639  
H15      H      0.457130000000     0.207980000000     0.650440000000     0.0548361  
H16      H      0.336030000000     0.236990000000     0.701800000000     0.175256   
H17      H      0.574240000000     0.977070000000     0.769360000000     0.0529265  
H18      H      0.543440000000     0.964250000000     0.864860000000     0.0346489  
H19      H      0.582050000000     0.160300000000     0.863330000000     0.0517294  
H20      H      0.696010000000     0.303480000000     0.783820000000     0.168137   
H21      H      0.549750000000     0.119820000000     0.241330000000     0.0602428  
H22      H      0.565210000000     0.150890000000     0.337870000000     0.0426423  
H23      H      0.508920000000     0.956690000000     0.390500000000     0.0656119  
H24      H      0.434260000000     0.800870000000     0.344590000000     0.182356   
H25      H      0.623410000000     0.751050000000     0.991850000000     0.0360426  
H26      H      0.614590000000     0.837160000000     0.031210000000     0.0451653  
H27      H      0.442710000000     0.782880000000     0.927140000000     0.0521321  
H28      H      0.399460000000     0.719720000000     0.827390000000     0.155667   
H29      H      0.573020000000     0.336610000000     0.086750000000     0.0388316  
H30      H      0.567760000000     0.234290000000     0.090130000000     0.0463113  
H31      H      0.381990000000     0.143880000000     0.165560000000     0.0579437  
H32      H      0.308260000000     0.200720000000     0.253960000000     0.16512    
H33      H      0.847190000000     0.415150000000     0.478400000000     0.0495024  
H34      H      0.740190000000     0.321580000000     0.475420000000     0.0338365  
H35      H      0.819060000000     0.198710000000     0.453720000000     0.0470012  
H36      H      0.910230000000     0.225570000000     0.380640000000     0.160992   
H37      H      0.453270000000     0.793840000000     0.630190000000     0.0649923  
H38      H      0.345590000000     0.701660000000     0.600560000000     0.0424773  
H39      H      0.253040000000     0.793710000000     0.669470000000     0.0535245  
H40      H      0.298180000000     0.854900000000     0.772610000000     0.162034   
H41      H      0.741280000000     0.499860000000     0.560210000000     0.0284696  
H42      H      0.837520000000     0.495450000000     0.586120000000     0.0387404  
H43      H      0.951990000000     0.664460000000     0.485570000000     0.0639358  
H44      H      0.954250000000     0.776260000000     0.412030000000     0.181969   
H45      H      0.386730000000     0.581910000000     0.614940000000     0.0505496  
H46      H      0.282770000000     0.577100000000     0.602910000000     0.0510331  
H47      H      0.296870000000     0.593380000000     0.425890000000     0.0426611  
H48      H      0.333630000000     0.557600000000     0.343490000000     0.159924   
H49      H      0.055500000000     0.641130000000     0.854950000000     0.0669658  
H50      H      0.058990000000     0.652200000000     0.754440000000     0.0538788  
H51      H      0.034990000000     0.462640000000     0.745880000000     0.0562164  
H52      H      0.090180000000     0.401910000000     0.798820000000     0.163692   
H53      H      0.092600000000     0.482580000000     0.352580000000     0.053625   
H54      H      0.066930000000     0.472490000000     0.253340000000     0.057473   
H55      H      0.987480000000     0.598040000000     0.260180000000     0.0517431  
H56      H      0.886970000000     0.569770000000     0.333300000000     0.162739   
H57      H      0.736370000000     0.183550000000     0.937900000000     0.0446769  
H58      H      0.826660000000     0.299300000000     0.929880000000     0.0550823  
H59      H      0.771830000000     0.336760000000     0.083570000000     0.0418395  
H60      H      0.767470000000     0.300910000000     0.184730000000     0.157689   
H61      H      0.273980000000     0.871490000000     0.145200000000     0.0522756  
H62      H      0.164340000000     0.775470000000     0.143380000000     0.0418967  
H63      H      0.247020000000     0.653240000000     0.137530000000     0.056605   
H64      H      0.392030000000     0.655310000000     0.172780000000     0.180125   
H65      H      0.686300000000     0.436290000000     0.974570000000     0.0517833  
H66      H      0.789830000000     0.440440000000     0.001350000000     0.0399816  
H67      H      0.791080000000     0.507660000000     0.162110000000     0.0440918  
H68      H      0.682040000000     0.466860000000     0.230980000000     0.158201   
H69      H      0.167860000000     0.446190000000     0.102050000000     0.0616463  
H70      H      0.272000000000     0.453020000000     0.128150000000     0.0409141  
H71      H      0.374040000000     0.631620000000     0.037550000000     0.0671774  
H72      H      0.346770000000     0.749480000000     0.982500000000     0.175877   
H73      H      0.922920000000     0.816950000000     0.659930000000     0.0466803  
H74      H      0.810640000000     0.718450000000     0.656630000000     0.044638   
H75      H      0.757260000000     0.806040000000     0.520000000000     0.0535799  
H76      H      0.818050000000     0.859530000000     0.390660000000     0.174197   
H77      H      0.470810000000     0.294590000000     0.461500000000     0.0366388  
H78      H      0.368160000000     0.189180000000     0.467260000000     0.0450693  
H79      H      0.257220000000     0.284350000000     0.455950000000     0.0587694  
H80      H      0.262600000000     0.403120000000     0.369110000000     0.175335   
H81      H      0.899650000000     0.115610000000     0.514530000000     0.0688441  
H82      H      0.805390000000     0.126310000000     0.524870000000     0.0515324  
H83      H      0.742040000000     0.986700000000     0.658400000000     0.0610417  
H84      H      0.789130000000     0.903920000000     0.749520000000     0.167409   
H85      H      0.356820000000     0.187590000000     0.590790000000     0.0518857  
H86      H      0.435640000000     0.182030000000     0.539250000000     0.0343203  
H87      H      0.331490000000     0.974450000000     0.556290000000     0.0619755  
H88      H      0.201010000000     0.850300000000     0.625990000000     0.175882   
H89      H      0.018900000000     0.765110000000     0.563080000000     0.0502278  
H90      H      0.004940000000     0.854740000000     0.527690000000     0.0505405  
H91      H      0.181910000000     0.934750000000     0.441910000000     0.0535975  
H92      H      0.319660000000     0.915970000000     0.437520000000     0.173195   
H93      H      0.167320000000     0.299380000000     0.592310000000     0.0438035  
H94      H      0.163500000000     0.396460000000     0.589660000000     0.0397833  
H95      H      0.975770000000     0.298700000000     0.660590000000     0.0550818  
H96      H      0.920820000000     0.186450000000     0.772340000000     0.177722   
H97      H      0.016540000000     0.959960000000     0.845750000000     0.0374761  
H98      H      0.064910000000     0.977190000000     0.755610000000     0.0498715  
H99      H      0.130820000000     0.180410000000     0.760940000000     0.0629252  
H100     H      0.081980000000     0.278200000000     0.820220000000     0.185642   
H101     H      0.173320000000     0.088740000000     0.361360000000     0.049132   
H102     H      0.154670000000     0.071470000000     0.262110000000     0.0516173  
H103     H      0.018330000000     0.139460000000     0.256070000000     0.0538729  
H104     H      0.962810000000     0.190030000000     0.303840000000     0.163409   
H105     H      0.811000000000     0.821390000000     0.982940000000     0.0430758  
H106     H      0.703150000000     0.727830000000     0.989390000000     0.0385414  
H107     H      0.703100000000     0.757710000000     0.162730000000     0.0610036  
H108     H      0.810660000000     0.772010000000     0.269380000000     0.180152   
H109     H      0.337260000000     0.374610000000     0.119920000000    -0.0369873  
H110     H      0.235950000000     0.288760000000     0.156120000000     0.045394   
H111     H      0.182530000000     0.214670000000     0.990600000000     0.0161326  
H112     H      0.187040000000     0.373790000000     0.949390000000     0.165338   
H113     H      0.748960000000     0.042940000000     0.031560000000     0.0410531  
H114     H      0.853840000000     0.054940000000     0.043050000000     0.0482128  
H115     H      0.810690000000     0.960130000000     0.203160000000     0.0633985  
H116     H      0.679080000000     0.880160000000     0.291720000000     0.172995   
H117     H      0.166990000000     0.921780000000     0.993390000000     0.032784   
H118     H      0.268360000000     0.918510000000     0.003660000000     0.0502511  
H119     H      0.378220000000     0.123150000000     0.970720000000     0.0489148  
H120     H      0.382520000000     0.237590000000     0.949060000000     0.159179   
H121     H      0.020290000000     0.704180000000     0.119460000000     0.00442063 
H122     H      0.035390000000     0.805670000000     0.153280000000     0.0472822  
H123     H      0.049260000000     0.874580000000     0.984230000000     0.0257878  
H124     H      0.112620000000     0.881190000000     0.892810000000     0.161142   
H125     H      0.890510000000     0.246030000000     0.010830000000     0.0395815  
H126     H      0.910000000000     0.161470000000     0.978030000000     0.0426813  
H127     H      0.109320000000     0.274340000000     0.040520000000     0.0573953  
H128     H      0.172210000000     0.348000000000     0.178820000000     0.164575   
N1       N      0.527880000000     0.523550000000     0.719790000000    -0.182144   
N2       N      0.536090000000     0.512740000000     0.837900000000    -0.175995   
N3       N      0.540410000000     0.521780000000     0.234670000000    -0.189168   
N4       N      0.587040000000     0.519270000000     0.343120000000    -0.181411   
N5       N      0.618360000000     0.905140000000     0.495790000000    -0.163333   
N6       N      0.603720000000     0.780920000000     0.493060000000    -0.176348   
N7       N      0.557080000000     0.256850000000     0.627770000000    -0.187484   
N8       N      0.552780000000     0.370790000000     0.628630000000    -0.179379   
N9       N      0.555950000000     0.060100000000     0.869460000000    -0.192041   
N10      N      0.589690000000     0.074020000000     0.759120000000    -0.181986   
N11      N      0.539530000000     0.056090000000     0.371140000000    -0.188635   
N12      N      0.521000000000     0.019230000000     0.258830000000    -0.175531   
N13      N      0.523220000000     0.811670000000     0.986970000000    -0.186756   
N14      N      0.528850000000     0.704030000000     0.951560000000    -0.175229   
N15      N      0.472510000000     0.179680000000     0.126120000000    -0.17183    
N16      N      0.480820000000     0.302540000000     0.123760000000    -0.181385   
N17      N      0.772460000000     0.252290000000     0.470310000000    -0.186991   
N18      N      0.899340000000     0.362540000000     0.476330000000    -0.174757   
N19      N      0.290880000000     0.743150000000     0.628400000000    -0.180526   
N20      N      0.415560000000     0.854940000000     0.647050000000    -0.16122    
N21      N      0.902280000000     0.581080000000     0.539060000000    -0.190611   
N22      N      0.788930000000     0.587450000000     0.508850000000    -0.179631   
N23      N      0.283830000000     0.586120000000     0.513180000000    -0.190639   
N24      N      0.402690000000     0.588860000000     0.527150000000    -0.177348   
N25      N      0.046330000000     0.557940000000     0.742710000000    -0.186062   
N26      N      0.043250000000     0.544570000000     0.859600000000    -0.172421   
N27      N      0.026880000000     0.536120000000     0.249250000000    -0.185577   
N28      N      0.055230000000     0.546710000000     0.364750000000    -0.176998   
N29      N      0.806960000000     0.326790000000     0.006750000000    -0.188996   
N30      N      0.712680000000     0.193570000000     0.020450000000    -0.178262   
N31      N      0.198140000000     0.707920000000     0.136470000000    -0.186039   
N32      N      0.324640000000     0.818340000000     0.138430000000    -0.170817   
N33      N      0.796500000000     0.471890000000     0.084850000000    -0.185551   
N34      N      0.680940000000     0.475920000000     0.050920000000    -0.170504   
N35      N      0.330960000000     0.543520000000     0.085120000000    -0.186145   
N36      N      0.207580000000     0.531990000000     0.050590000000    -0.17241    
N37      N      0.777980000000     0.753750000000     0.584990000000    -0.194339   
N38      N      0.906040000000     0.858040000000     0.583110000000    -0.187133   
N39      N      0.308250000000     0.232140000000     0.472270000000    -0.166567   
N40      N      0.421960000000     0.350400000000     0.454610000000    -0.180106   
N41      N      0.767110000000     0.056560000000     0.592540000000    -0.185486   
N42      N      0.878590000000     0.046330000000     0.582440000000    -0.179576   
N43      N      0.388730000000     0.077500000000     0.542520000000    -0.188712   
N44      N      0.294450000000     0.084190000000     0.602020000000    -0.178295   
N45      N      0.092080000000     0.901200000000     0.481660000000    -0.184228   
N46      N      0.107610000000     0.795550000000     0.520960000000    -0.161358   
N47      N      0.066980000000     0.353980000000     0.621500000000    -0.185568   
N48      N      0.072230000000     0.237080000000     0.627170000000    -0.164516   
N49      N      0.103910000000     0.080920000000     0.752700000000    -0.185948   
N50      N      0.044950000000     0.060100000000     0.855060000000    -0.180571   
N51      N      0.082060000000     0.100560000000     0.252420000000    -0.183611   
N52      N      0.101880000000     0.118650000000     0.368260000000    -0.183555   
N53      N      0.693590000000     0.739190000000     0.076440000000    -0.184194   
N54      N      0.826150000000     0.837970000000     0.071040000000    -0.181454   
N55      N      0.197190000000     0.246380000000     0.076180000000    -0.187251   
N56      N      0.308280000000     0.349230000000     0.033240000000    -0.234127   
N57      N      0.839560000000     0.005340000000     0.123400000000    -0.183126   
N58      N      0.713660000000     0.991670000000     0.109430000000    -0.176867   
N59      N      0.331320000000     0.021260000000     0.990110000000    -0.181804   
N60      N      0.213200000000     0.024930000000     0.981550000000    -0.177174   
N61      N      0.047800000000     0.849620000000     0.071740000000    -0.216186   
N62      N      0.042640000000     0.738780000000     0.034470000000    -0.192236   
N63      N      0.011190000000     0.210760000000     0.007390000000    -0.191877   
N64      N      0.984190000000     0.297520000000     0.055300000000    -0.163792   
O1       O      0.978230000000     0.104530000000     0.011310000000    -0.430249   
O2       O      0.913820000000     0.918450000000     0.019540000000    -0.407516   
O3       O      0.089170000000     0.088890000000     0.942580000000    -0.446257   
O4       O      0.929270000000     0.994610000000     0.162400000000    -0.36416    
O5       O      0.989980000000     0.004570000000     0.933740000000    -0.454073   
O6       O      0.927510000000     0.023200000000     0.078520000000    -0.471848   
O7       O      0.928100000000     0.902270000000     0.109010000000    -0.459458   
O8       O      0.077360000000     0.168250000000     0.002010000000    -0.430577   
O9       O      0.026480000000     0.095120000000     0.167940000000    -0.418435   
O10      O      0.100400000000     0.990390000000     0.972610000000    -0.417026   
O11      O      0.149810000000     0.139660000000     0.089730000000    -0.438228   
O12      O      0.050870000000     0.923120000000     0.135320000000    -0.411844   
O13      O      0.028130000000     0.930860000000     0.050940000000    -0.634955   
O14      O      0.090620000000     0.181500000000     0.096590000000    -0.399866   
O15      O      0.074150000000     0.037740000000     0.180040000000    -0.433026   
O16      O      0.165150000000     0.070430000000     0.026980000000    -0.435614   
O17      O      0.036000000000     0.035870000000     0.059150000000    -0.513155   
O18      O      0.143360000000     0.101750000000     0.452580000000    -0.438365   
O19      O      0.048890000000     0.127990000000     0.645570000000    -0.357757   
O20      O      0.968650000000     0.066530000000     0.532030000000    -0.413011   
O21      O      0.213530000000     0.190500000000     0.520830000000    -0.432897   
O22      O      0.951550000000     0.015420000000     0.611400000000    -0.470144   
O23      O      0.251330000000     0.124240000000     0.502610000000    -0.397777   
O24      O      0.114800000000     0.187380000000     0.579290000000    -0.409122   
O25      O      0.049160000000     0.094120000000     0.450310000000    -0.455021   
O26      O      0.186950000000     0.049090000000     0.593750000000    -0.420105   
O27      O      0.003090000000     0.938210000000     0.628640000000    -0.403971   
O28      O      0.048980000000     0.970700000000     0.472390000000    -0.412639   
O29      O      0.154850000000     0.145420000000     0.676060000000    -0.382328   
O30      O      0.110860000000     0.043200000000     0.670430000000    -0.433626   
O31      O      0.149780000000     0.006010000000     0.504570000000    -0.44342    
O32      O      0.246880000000     0.144650000000     0.616110000000    -0.429513   
O33      O      0.975070000000     0.954660000000     0.545140000000    -0.536082   
O34      O      0.088200000000     0.063880000000     0.563130000000    -0.581324   
O35      O      0.908920000000     0.418860000000     0.982740000000    -0.380001   
O36      O      0.989830000000     0.631260000000     0.022960000000    -0.455228   
O37      O      0.885580000000     0.468500000000     0.131530000000    -0.383996   
O38      O      0.058130000000     0.592550000000     0.943680000000    -0.440653   
O39      O      0.902410000000     0.542970000000     0.069290000000    -0.441402   
O40      O      0.028320000000     0.489170000000     0.944870000000    -0.376865   
O41      O      0.092240000000     0.682180000000     0.019380000000    -0.432567   
O42      O      0.886200000000     0.392150000000     0.067300000000    -0.519677   
O43      O      0.092370000000     0.479050000000     0.054760000000    -0.377204   
O44      O      0.985650000000     0.560620000000     0.167920000000    -0.439518   
O45      O      0.993280000000     0.389170000000     0.094120000000    -0.400008   
O46      O      0.141210000000     0.616780000000     0.085870000000    -0.451752   
O47      O      0.085230000000     0.656540000000     0.117680000000    -0.421404   
O48      O      0.989720000000     0.379610000000     0.001600000000    -0.414538   
O49      O      0.137690000000     0.555340000000     0.995810000000    -0.432793   
O50      O      0.018720000000     0.490310000000     0.165410000000    -0.432948   
O51      O      0.007730000000     0.529530000000     0.051970000000    -0.564632   
O52      O      0.011950000000     0.416640000000     0.503190000000    -0.405572   
O53      O      0.097690000000     0.721590000000     0.591770000000    -0.393665   
O54      O      0.954580000000     0.537160000000     0.592540000000    -0.460874   
O55      O      0.089090000000     0.608540000000     0.443000000000    -0.413765   
O56      O      0.012640000000     0.618430000000     0.538350000000    -0.429258   
O57      O      0.094090000000     0.519080000000     0.446290000000    -0.425072   
O58      O      0.129400000000     0.711980000000     0.510440000000    -0.417898   
O59      O      0.954170000000     0.459660000000     0.520930000000    -0.463569   
O60      O      0.185150000000     0.552940000000     0.545600000000    -0.478682   
O61      O      0.054110000000     0.611690000000     0.656730000000    -0.380055   
O62      O      0.009170000000     0.409040000000     0.604940000000    -0.416919   
O63      O      0.229490000000     0.687490000000     0.551370000000    -0.414325   
O64      O      0.176850000000     0.676220000000     0.625160000000    -0.401899   
O65      O      0.112170000000     0.460580000000     0.594710000000    -0.447093   
O66      O      0.205330000000     0.605740000000     0.469360000000    -0.396333   
O67      O      0.032430000000     0.510340000000     0.660250000000    -0.485032   
O68      O      0.085960000000     0.559970000000     0.556860000000    -0.537021   
O69      O      0.390070000000     0.980350000000     0.039030000000    -0.410245   
O70      O      0.505330000000     0.897610000000     0.984640000000    -0.42571    
O71      O      0.551700000000     0.097810000000     0.954050000000    -0.420472   
O72      O      0.428910000000     0.867070000000     0.106820000000    -0.438131   
O73      O      0.508840000000     0.995900000000     0.944840000000    -0.452389   
O74      O      0.394730000000     0.931130000000     0.134700000000    -0.378512   
O75      O      0.532890000000     0.870640000000     0.063760000000    -0.420041   
O76      O      0.444380000000     0.075370000000     0.002840000000    -0.437411   
O77      O      0.517210000000     0.044820000000     0.165500000000    -0.392433   
O78      O      0.642160000000     0.085440000000     0.992490000000    -0.401111   
O79      O      0.518150000000     0.121110000000     0.100330000000    -0.458051   
O80      O      0.611720000000     0.973080000000     0.132150000000    -0.425433   
O81      O      0.632620000000     0.979760000000     0.043610000000    -0.437142   
O82      O      0.416690000000     0.063520000000     0.126530000000    -0.359239   
O83      O      0.508260000000     0.952370000000     0.186550000000    -0.424987   
O84      O      0.615850000000     0.124600000000     0.058920000000    -0.42651    
O85      O      0.515230000000     0.994470000000     0.060140000000    -0.518255   
O86      O      0.452360000000     0.032490000000     0.541430000000    -0.446129   
O87      O      0.654490000000     0.014240000000     0.477020000000    -0.388411   
O88      O      0.576540000000     0.132120000000     0.440670000000    -0.452816   
O89      O      0.528890000000     0.914810000000     0.631970000000    -0.361375   
O90      O      0.554190000000     0.034060000000     0.462660000000    -0.439648   
O91      O      0.473210000000     0.966330000000     0.626680000000    -0.442836   
O92      O      0.566110000000     0.957090000000     0.527690000000    -0.412791   
O93      O      0.492750000000     0.131070000000     0.511640000000    -0.442652   
O94      O      0.542810000000     0.087970000000     0.678980000000    -0.443319   
O95      O      0.690550000000     0.141550000000     0.470230000000    -0.383058   
O96      O      0.603360000000     0.211130000000     0.581260000000    -0.448155   
O97      O      0.657970000000     0.008330000000     0.611960000000    -0.404815   
O98      O      0.701210000000     0.095250000000     0.561090000000    -0.45549    
O99      O      0.506700000000     0.146570000000     0.611770000000    -0.413101   
O100     O      0.590550000000     0.031930000000     0.675660000000    -0.406192   
O101     O      0.676980000000     0.211350000000     0.513520000000    -0.468845   
O102     O      0.588740000000     0.091740000000     0.564720000000    -0.564639   
O103     O      0.387010000000     0.371600000000     0.970020000000    -0.421247   
O104     O      0.499730000000     0.624320000000     0.015060000000    -0.420703   
O105     O      0.379840000000     0.483560000000     0.079620000000    -0.502159   
O106     O      0.587050000000     0.530610000000     0.927330000000    -0.423987   
O107     O      0.444770000000     0.583900000000     0.103090000000    -0.38248    
O108     O      0.484660000000     0.465000000000     0.919090000000    -0.448142   
O109     O      0.554520000000     0.622960000000     0.947400000000    -0.406262   
O110     O      0.417020000000     0.417900000000     0.043380000000    -0.777827   
O111     O      0.584640000000     0.448470000000     0.995460000000    -0.396678   
O112     O      0.554140000000     0.560430000000     0.144040000000    -0.447488   
O113     O      0.473040000000     0.396400000000     0.127030000000    -0.438478   
O114     O      0.617060000000     0.640920000000     0.043540000000    -0.571757   
O115     O      0.584960000000     0.678420000000     0.107070000000    -0.363013   
O116     O      0.479640000000     0.360810000000     0.046360000000    -0.439279   
O117     O      0.635360000000     0.541310000000     0.039180000000    -0.417957   
O118     O      0.456040000000     0.489810000000     0.169400000000    -0.52222    
O119     O      0.499180000000     0.504260000000     0.037300000000    -0.482123   
O120     O      0.528500000000     0.412330000000     0.492070000000    -0.421843   
O121     O      0.604530000000     0.701650000000     0.549940000000    -0.450267   
O122     O      0.456360000000     0.538340000000     0.512330000000    -0.460564   
O123     O      0.592520000000     0.584810000000     0.409900000000    -0.446501   
O124     O      0.495300000000     0.604300000000     0.580960000000    -0.411632   
O125     O      0.616810000000     0.508520000000     0.434310000000    -0.42455    
O126     O      0.597470000000     0.686240000000     0.460470000000    -0.401528   
O127     O      0.472050000000     0.458050000000     0.474250000000    -0.43163    
O128     O      0.690280000000     0.562210000000     0.539760000000    -0.459085   
O129     O      0.580670000000     0.559940000000     0.639010000000    -0.463921   
O130     O      0.498290000000     0.419310000000     0.584130000000    -0.418413   
O131     O      0.701030000000     0.692190000000     0.520080000000    -0.491476   
O132     O      0.683670000000     0.657760000000     0.606470000000    -0.421854   
O133     O      0.603620000000     0.473880000000     0.592570000000    -0.436516   
O134     O      0.713570000000     0.611570000000     0.461340000000    -0.389519   
O135     O      0.476070000000     0.505870000000     0.629280000000    -0.390688   
O136     O      0.579780000000     0.562030000000     0.527730000000    -0.519384   
O137     O      0.686290000000     0.530720000000     0.875380000000    -0.146385   
O138     O      0.731600000000     0.621020000000     0.791400000000    -0.260647   
O139     O      0.684270000000     0.642760000000     0.883140000000    -0.174669   
O140     O      0.735460000000     0.568860000000     0.361680000000    -0.150524   
O141     O      0.755080000000     0.636730000000     0.262740000000    -0.24819    
O142     O      0.725600000000     0.678570000000     0.354610000000    -0.158582   
O143     O      0.472240000000     0.711160000000     0.594700000000    -0.178205   
O144     O      0.462500000000     0.806300000000     0.530290000000    -0.264968   
O145     O      0.466860000000     0.711740000000     0.479850000000    -0.163803   
O146     O      0.379490000000     0.305660000000     0.600160000000    -0.175671   
O147     O      0.377290000000     0.237250000000     0.695460000000    -0.265215   
O148     O      0.439050000000     0.369560000000     0.695930000000    -0.163914   
O149     O      0.567750000000     0.220450000000     0.743440000000    -0.15865    
O150     O      0.684230000000     0.260490000000     0.801370000000    -0.270951   
O151     O      0.665380000000     0.211550000000     0.697210000000    -0.156312   
O152     O      0.527030000000     0.874660000000     0.266290000000    -0.137664   
O153     O      0.449570000000     0.846750000000     0.353840000000    -0.269086   
O154     O      0.405320000000     0.861820000000     0.250350000000    -0.15137    
O155     O      0.365140000000     0.591330000000     0.924820000000    -0.1419     
O156     O      0.370360000000     0.688180000000     0.855720000000    -0.247406   
O157     O      0.446040000000     0.634150000000     0.839190000000    -0.160792   
O158     O      0.298360000000     0.213610000000     0.140260000000    -0.16045    
O159     O      0.350840000000     0.207230000000     0.242410000000    -0.26763    
O160     O      0.381750000000     0.324990000000     0.196260000000    -0.181317   
O161     O      0.994470000000     0.287340000000     0.510330000000    -0.1499     
O162     O      0.927760000000     0.219180000000     0.417690000000    -0.252742   
O163     O      0.010360000000     0.350560000000     0.410470000000    -0.157437   
O164     O      0.377720000000     0.978930000000     0.671440000000    -0.168441   
O165     O      0.296230000000     0.885210000000     0.743600000000    -0.250566   
O166     O      0.428720000000     0.935290000000     0.754420000000    -0.169511   
O167     O      0.812540000000     0.727860000000     0.453260000000    -0.144784   
O168     O      0.939350000000     0.759530000000     0.450200000000    -0.274744   
O169     O      0.851080000000     0.676460000000     0.375610000000    -0.152019   
O170     O      0.478640000000     0.588600000000     0.413710000000    -0.108539   
O171     O      0.354880000000     0.536480000000     0.365880000000    -0.254683   
O172     O      0.431280000000     0.665880000000     0.377830000000    -0.152786   
O173     O      0.963350000000     0.375270000000     0.883900000000    -0.131244   
O174     O      0.042370000000     0.379550000000     0.805140000000    -0.261852   
O175     O      0.095660000000     0.440000000000     0.903750000000    -0.138987   
O176     O      0.037270000000     0.681900000000     0.399420000000    -0.135042   
O177     O      0.925780000000     0.614550000000     0.334210000000    -0.261974   
O178     O      0.946600000000     0.558040000000     0.428680000000    -0.163264   
O179     O      0.709760000000     0.141880000000     0.145850000000    -0.141974   
O180     O      0.780450000000     0.269480000000     0.173730000000    -0.264473   
O181     O      0.647950000000     0.210420000000     0.153780000000    -0.160306   
O182     O      0.442550000000     0.790140000000     0.189760000000    -0.149165   
O183     O      0.354120000000     0.662370000000     0.173840000000    -0.274044   
O184     O      0.410950000000     0.743780000000     0.085600000000    -0.155029   
O185     O      0.597890000000     0.470950000000     0.153810000000    -0.171965   
O186     O      0.709120000000     0.513420000000     0.219640000000    -0.265482   
O187     O      0.697690000000     0.595800000000     0.142370000000    -0.139886   
O188     O      0.228050000000     0.680250000000     0.007790000000    -0.198592   
O189     O      0.348770000000     0.708830000000     0.981790000000    -0.26743    
O190     O      0.241630000000     0.616790000000     0.924040000000    -0.133271   
O191     O      0.932260000000     0.876940000000     0.443830000000    -0.159167   
O192     O      0.804440000000     0.841490000000     0.428810000000    -0.266302   
O193     O      0.890780000000     0.960060000000     0.468750000000    -0.201282   
O194     O      0.408930000000     0.458560000000     0.376080000000    -0.137469   
O195     O      0.277860000000     0.371090000000     0.372180000000    -0.269436   
O196     O      0.335660000000     0.443640000000     0.464860000000    -0.165105   
O197     O      0.915950000000     0.995830000000     0.712040000000    -0.164363   
O198     O      0.785680000000     0.937610000000     0.725880000000    -0.270832   
O199     O      0.830540000000     0.893590000000     0.648270000000    -0.171652   
O200     O      0.153040000000     0.928050000000     0.602950000000    -0.141119   
O201     O      0.243400000000     0.890490000000     0.618600000000    -0.264688   
O202     O      0.233880000000     0.965820000000     0.695160000000    -0.136281   
O203     O      0.203800000000     0.786870000000     0.418270000000    -0.154015   
O204     O      0.278070000000     0.916660000000     0.438880000000    -0.272047   
O205     O      0.259420000000     0.827400000000     0.521690000000    -0.162483   
O206     O      0.983570000000     0.126930000000     0.724430000000    -0.145106   
O207     O      0.958290000000     0.220490000000     0.751320000000    -0.255837   
O208     O      0.891760000000     0.144270000000     0.664280000000    -0.166436   
O209     O      0.114550000000     0.217620000000     0.905440000000    -0.145586   
O210     O      0.080330000000     0.241230000000     0.801260000000    -0.259018   
O211     O      0.986260000000     0.153390000000     0.870450000000    -0.160308   
O212     O      0.068460000000     0.220000000000     0.420780000000    -0.130719   
O213     O      0.007630000000     0.219440000000     0.320240000000    -0.254979   
O214     O      0.950910000000     0.114770000000     0.392030000000    -0.145101   
O215     O      0.868710000000     0.889070000000     0.218300000000    -0.169478   
O216     O      0.786560000000     0.760890000000     0.232370000000    -0.257662   
O217     O      0.899180000000     0.803070000000     0.179270000000    -0.160707   
O218     O      0.247270000000     0.285620000000     0.882910000000    -0.131051   
O219     O      0.181790000000     0.342760000000     0.920550000000    -0.24745    
O220     O      0.313210000000     0.411720000000     0.913530000000    -0.140841   
O221     O      0.609890000000     0.865330000000     0.186550000000    -0.151669   
O222     O      0.712360000000     0.901120000000     0.262880000000    -0.268212   
O223     O      0.659260000000     0.978830000000     0.242170000000    -0.138962   
O224     O      0.289110000000     0.193670000000     0.017610000000    -0.166987   
O225     O      0.350210000000     0.205570000000     0.921760000000    -0.25644    
O226     O      0.217620000000     0.151410000000     0.919640000000    -0.154005   
O227     O      0.994580000000     0.714550000000     0.899540000000    -0.147225   
O228     O      0.065670000000     0.846740000000     0.888010000000    -0.268517   
O229     O      0.126410000000     0.776840000000     0.916430000000    -0.159781   
O230     O      0.038790000000     0.248420000000     0.176010000000    -0.164964   
O231     O      0.157080000000     0.340260000000     0.138870000000    -0.284813   
O232     O      0.068990000000     0.373700000000     0.167780000000    -0.149703   
S1       S      0.674210000000     0.585740000000     0.839770000000     0.287603   
S2       S      0.712450000000     0.613280000000     0.321290000000     0.295433   
S3       S      0.492970000000     0.755520000000     0.536250000000     0.28529    
S4       S      0.422430000000     0.306230000000     0.658080000000     0.284756   
S5       S      0.628820000000     0.205420000000     0.755810000000     0.281418   
S6       S      0.472000000000     0.888290000000     0.292580000000     0.293402   
S7       S      0.414430000000     0.656730000000     0.887240000000     0.28194    
S8       S      0.365280000000     0.250630000000     0.182040000000     0.274793   
S9       S      0.956780000000     0.290270000000     0.450360000000     0.289724   
S10      S      0.365550000000     0.913500000000     0.708700000000     0.297115   
S11      S      0.861140000000     0.698900000000     0.441370000000     0.295884   
S12      S      0.411690000000     0.594570000000     0.408600000000     0.297091   
S13      S      0.035360000000     0.422310000000     0.855560000000     0.292128   
S14      S      0.983100000000     0.608420000000     0.375580000000     0.285241   
S15      S      0.715950000000     0.214170000000     0.134340000000     0.287523   
S16      S      0.381770000000     0.738490000000     0.147710000000     0.292844   
S17      S      0.678440000000     0.519150000000     0.155510000000     0.285631   
S18      S      0.270930000000     0.648120000000     0.986860000000     0.304736   
S19      S      0.872780000000     0.883050000000     0.470500000000     0.292925   
S20      S      0.346880000000     0.406140000000     0.413950000000     0.296164   
S21      S      0.842970000000     0.960240000000     0.678010000000     0.295121   
S22      S      0.228970000000     0.951710000000     0.627470000000     0.295382   
S23      S      0.223950000000     0.843140000000     0.465820000000     0.286279   
S24      S      0.964520000000     0.180990000000     0.697770000000     0.291212   
S25      S      0.063020000000     0.183760000000     0.851760000000     0.295621   
S26      S      0.021960000000     0.173190000000     0.368130000000     0.291142   
S27      S      0.838810000000     0.818000000000     0.188000000000     0.290863   
S28      S      0.250750000000     0.337980000000     0.928090000000     0.288191   
S29      S      0.677800000000     0.928550000000     0.213240000000     0.289681   
S30      S      0.282040000000     0.158410000000     0.957620000000     0.279491   
S31      S      0.059660000000     0.781640000000     0.924510000000     0.269858   
S32      S      0.076950000000     0.316720000000     0.138160000000     0.287078   


