data_structure

_audit_creation_method RASPA-1.0
_audit_creation_date 2023-6-4
_audit_author_name 'Poobodin Mano'

_cell_length_a    31.6314
_cell_length_b    31.5733
_cell_length_c    32.4548
_cell_angle_alpha 87.1336
_cell_angle_beta  93.8222
_cell_angle_gamma 120.434
_cell_volume      27879.7

_symmetry_cell_setting          triclinic
_symmetry_space_group_name_Hall 'P 1'
_symmetry_space_group_name_H-M  'P 1'
_symmetry_Int_Tables_number     1

_symmetry_equiv_pos_as_xyz 'x,y,z'

loop_
_atom_site_label
_atom_site_type_symbol
_atom_site_fract_x
_atom_site_fract_y
_atom_site_fract_z
_atom_site_charge
Br1      Br     0.658760000000     0.640240000000     0.883350000000    -0.240266   
Br2      Br     0.652200000000     0.621640000000     0.166420000000    -0.219169   
Br3      Br     0.645580000000     0.000090000000     0.427140000000    -0.222164   
Br4      Br     0.587630000000     0.231940000000     0.660660000000    -0.238396   
Br5      Br     0.514570000000     0.130110000000     0.905310000000    -0.187348   
Br6      Br     0.611860000000     0.095520000000     0.213120000000    -0.217093   
Br7      Br     0.446840000000     0.798910000000     0.059040000000    -0.237951   
Br8      Br     0.458020000000     0.137770000000     0.013430000000    -0.192599   
Br9      Br     0.959200000000     0.348290000000     0.465710000000    -0.238247   
Br10     Br     0.232600000000     0.721400000000     0.471140000000    -0.234863   
Br11     Br     0.679770000000     0.543100000000     0.606990000000    -0.216553   
Br12     Br     0.465690000000     0.721930000000     0.581710000000    -0.224443   
Br13     Br     0.111350000000     0.663360000000     0.908090000000    -0.214918   
Br14     Br     0.957720000000     0.584550000000     0.400210000000    -0.198681   
Br15     Br     0.955590000000     0.310730000000     0.081060000000    -0.24102    
Br16     Br     0.191640000000     0.603950000000     0.141790000000    -0.206019   
Br17     Br     0.857390000000     0.428860000000     0.121860000000    -0.235655   
Br18     Br     0.249090000000     0.652920000000     0.026940000000    -0.201963   
Br19     Br     0.706430000000     0.674520000000     0.613310000000    -0.216554   
Br20     Br     0.128650000000     0.239030000000     0.440130000000    -0.216951   
Br21     Br     0.675830000000     0.010360000000     0.646040000000    -0.231232   
Br22     Br     0.192150000000     0.084930000000     0.456650000000    -0.245743   
Br23     Br     0.040750000000     0.711850000000     0.437790000000    -0.204076   
Br24     Br     0.155320000000     0.496300000000     0.624310000000    -0.227901   
Br25     Br     0.004310000000     0.094510000000     0.923480000000    -0.218262   
Br26     Br     0.149090000000     0.081040000000     0.205110000000    -0.208245   
Br27     Br     0.930250000000     0.877460000000     0.935990000000    -0.244138   
Br28     Br     0.244780000000     0.114980000000     0.079070000000    -0.212602   
Br29     Br     0.616610000000     0.916010000000     0.181740000000    -0.227313   
Br30     Br     0.409770000000     0.996390000000     0.934690000000    -0.194444   
Br31     Br     0.071640000000     0.882250000000     0.147440000000    -0.214842   
Br32     Br     0.953780000000     0.133810000000     0.063610000000    -0.226595   
C1       C      0.048810000000     0.128380000000     0.039010000000     0.501874   
C2       C      0.942070000000     0.946800000000     0.012170000000     0.484868   
C3       C      0.042880000000     0.019300000000     0.952020000000     0.483211   
C4       C      0.928820000000     0.983740000000     0.122100000000     0.412319   
C5       C      0.045470000000     0.002700000000     0.161920000000     0.498072   
C6       C      0.137420000000     0.007910000000     0.014260000000     0.497156   
C7       C      0.147460000000     0.121830000000     0.086990000000     0.503875   
C8       C      0.000480000000     0.896560000000     0.084780000000     0.448529   
C9       C      0.004370000000     0.042310000000     0.447750000000     0.451343   
C10      C      0.076830000000     0.185910000000     0.591300000000     0.448986   
C11      C      0.936380000000     0.064770000000     0.512000000000     0.449136   
C12      C      0.146740000000     0.184290000000     0.521630000000     0.464477   
C13      C      0.147260000000     0.071630000000     0.547590000000     0.480167   
C14      C      0.939550000000     0.999370000000     0.600570000000     0.449232   
C15      C      0.055450000000     0.986790000000     0.514730000000     0.460983   
C16      C      0.038710000000     0.074410000000     0.651860000000     0.457479   
C17      C      0.956490000000     0.398770000000     0.027030000000     0.50099    
C18      C      0.077180000000     0.651450000000     0.006600000000     0.38738    
C19      C      0.929760000000     0.484590000000     0.046510000000     0.444665   
C20      C      0.045820000000     0.548340000000     0.939110000000     0.499333   
C21      C      0.151030000000     0.551030000000     0.996720000000     0.480269   
C22      C      0.014100000000     0.532690000000     0.137430000000     0.43841    
C23      C      0.078380000000     0.441510000000     0.067930000000     0.483846   
C24      C      0.109500000000     0.624740000000     0.098460000000     0.478695   
C25      C      0.953610000000     0.436480000000     0.507590000000     0.487668   
C26      C      0.083340000000     0.695010000000     0.528340000000     0.402002   
C27      C      0.961860000000     0.581320000000     0.546140000000     0.551735   
C28      C      0.021500000000     0.535510000000     0.438580000000     0.460396   
C29      C      0.145040000000     0.574240000000     0.486350000000     0.468443   
C30      C      0.030510000000     0.571340000000     0.636030000000     0.503737   
C31      C      0.043840000000     0.461240000000     0.592680000000     0.495568   
C32      C      0.164470000000     0.659500000000     0.547500000000     0.465077   
C33      C      0.431160000000     0.995610000000     0.034620000000     0.480987   
C34      C      0.518800000000     0.902250000000     0.014320000000     0.524084   
C35      C      0.548700000000     0.058530000000     0.954410000000     0.45214    
C36      C      0.424950000000     0.915030000000     0.107890000000     0.471982   
C37      C      0.535880000000     0.990120000000     0.173210000000     0.508857   
C38      C      0.633880000000     0.099910000000     0.040320000000     0.488893   
C39      C      0.526660000000     0.111510000000     0.075090000000     0.454703   
C40      C      0.617440000000     0.965630000000     0.091230000000     0.521734   
C41      C      0.433920000000     0.062780000000     0.546800000000     0.485539   
C42      C      0.580450000000     0.981480000000     0.507480000000     0.429315   
C43      C      0.508180000000     0.031680000000     0.457640000000     0.510155   
C44      C      0.453150000000     0.979600000000     0.596300000000     0.457164   
C45      C      0.566280000000     0.060790000000     0.656540000000     0.470321   
C46      C      0.618700000000     0.150700000000     0.481960000000     0.470599   
C47      C      0.539270000000     0.179270000000     0.571870000000     0.504929   
C48      C      0.650790000000     0.076460000000     0.578520000000     0.480025   
C49      C      0.444610000000     0.410590000000     0.028930000000     0.399816   
C50      C      0.554910000000     0.633160000000     0.982760000000     0.464905   
C51      C      0.449410000000     0.522320000000     0.046650000000     0.462477   
C52      C      0.561170000000     0.547830000000     0.923320000000     0.463142   
C53      C      0.645130000000     0.518110000000     0.991100000000     0.454035   
C54      C      0.547520000000     0.536630000000     0.128120000000     0.478106   
C55      C      0.564770000000     0.434520000000     0.053760000000     0.466659   
C56      C      0.649960000000     0.656240000000     0.056200000000     0.491452   
C57      C      0.457570000000     0.481740000000     0.477230000000     0.442475   
C58      C      0.550360000000     0.675100000000     0.467160000000     0.497168   
C59      C      0.459500000000     0.624950000000     0.544960000000     0.415388   
C60      C      0.575090000000     0.563570000000     0.428340000000     0.479446   
C61      C      0.663020000000     0.589370000000     0.519490000000     0.524586   
C62      C      0.523030000000     0.580560000000     0.619870000000     0.479834   
C63      C      0.508140000000     0.469060000000     0.575450000000     0.442606   
C64      C      0.636710000000     0.696880000000     0.553660000000     0.48044    
C65      C      0.595140000000     0.592960000000     0.859510000000     0.191293   
C66      C      0.511880000000     0.529120000000     0.860930000000     0.0783786  
C67      C      0.589970000000     0.597800000000     0.816510000000    -0.120754   
C68      C      0.568120000000     0.616350000000     0.727100000000    -0.0769592  
C69      C      0.505620000000     0.534200000000     0.818240000000    -0.0929579  
C70      C      0.540030000000     0.571820000000     0.748840000000     0.0340274  
C71      C      0.545200000000     0.568060000000     0.795040000000     0.0563217  
C72      C      0.562990000000     0.618540000000     0.683890000000     0.0843177  
C73      C      0.502320000000     0.534150000000     0.682800000000     0.0804096  
C74      C      0.507270000000     0.530400000000     0.725720000000    -0.0803051  
C75      C      0.594550000000     0.569500000000     0.191800000000     0.193836   
C76      C      0.519470000000     0.493190000000     0.191800000000     0.0833714  
C77      C      0.597030000000     0.568870000000     0.234890000000    -0.124694   
C78      C      0.558570000000     0.500560000000     0.330820000000    -0.0819871  
C79      C      0.521420000000     0.491550000000     0.235150000000    -0.0948331  
C80      C      0.559190000000     0.535510000000     0.302090000000     0.0315973  
C81      C      0.559630000000     0.530740000000     0.256960000000     0.0567714  
C82      C      0.563320000000     0.509870000000     0.373330000000     0.0747626  
C83      C      0.566520000000     0.585770000000     0.358780000000     0.0772689  
C84      C      0.562380000000     0.577930000000     0.316620000000    -0.0841479  
C85      C      0.597770000000     0.940810000000     0.454320000000     0.185729   
C86      C      0.539470000000     0.895430000000     0.504870000000     0.0849521  
C87      C      0.588050000000     0.896340000000     0.437290000000    -0.12329    
C88      C      0.590000000000     0.800990000000     0.435300000000    -0.0831731  
C89      C      0.529230000000     0.851390000000     0.488650000000    -0.0963215  
C90      C      0.548360000000     0.803430000000     0.443010000000     0.0344121  
C91      C      0.553800000000     0.850980000000     0.454800000000     0.0563221  
C92      C      0.588240000000     0.755980000000     0.438880000000     0.0814631  
C93      C      0.503620000000     0.714630000000     0.451700000000     0.0829167  
C94      C      0.503780000000     0.759020000000     0.447760000000    -0.080877   
C95      C      0.551430000000     0.244960000000     0.616710000000     0.189056   
C96      C      0.511500000000     0.233810000000     0.550230000000     0.0846315  
C97      C      0.542630000000     0.283580000000     0.623470000000    -0.122738   
C98      C      0.466590000000     0.337890000000     0.582790000000    -0.0824727  
C99      C      0.501930000000     0.271280000000     0.556420000000    -0.0992091  
C100     C      0.510100000000     0.339390000000     0.597740000000     0.0273376  
C101     C      0.517130000000     0.296640000000     0.593320000000     0.0566201  
C102     C      0.464740000000     0.381330000000     0.578600000000     0.0693613  
C103     C      0.546230000000     0.426670000000     0.606790000000     0.0668115  
C104     C      0.549240000000     0.384110000000     0.611770000000    -0.077552   
C105     C      0.543110000000     0.093150000000     0.887260000000     0.198761   
C106     C      0.580250000000     0.043740000000     0.896940000000     0.0913335  
C107     C      0.549800000000     0.095780000000     0.844840000000    -0.123869   
C108     C      0.590670000000     0.112030000000     0.759260000000    -0.0794201  
C109     C      0.587300000000     0.045930000000     0.855130000000    -0.100497   
C110     C      0.574120000000     0.069500000000     0.783780000000     0.03216    
C111     C      0.571070000000     0.071170000000     0.828570000000     0.0619388  
C112     C      0.590050000000     0.108780000000     0.716640000000     0.075662   
C113     C      0.558690000000     0.022730000000     0.722480000000     0.0823187  
C114     C      0.559090000000     0.024680000000     0.765170000000    -0.0815307  
C115     C      0.563990000000     0.033410000000     0.236900000000     0.198023   
C116     C      0.513550000000     0.946350000000     0.236720000000     0.0942852  
C117     C      0.555900000000     0.033490000000     0.278480000000    -0.125675   
C118     C      0.494190000000     0.025980000000     0.346660000000    -0.0855301  
C119     C      0.504760000000     0.945400000000     0.278310000000    -0.0976725  
C120     C      0.508030000000     0.991480000000     0.339780000000     0.036017   
C121     C      0.523650000000     0.989620000000     0.298640000000     0.0625692  
C122     C      0.489230000000     0.035410000000     0.386680000000     0.0855078  
C123     C      0.503880000000     0.972180000000     0.412660000000     0.0861016  
C124     C      0.509760000000     0.962020000000     0.372740000000    -0.0793722  
C125     C      0.487560000000     0.815490000000     0.012370000000     0.19684    
C126     C      0.534980000000     0.867940000000     0.958060000000     0.0869984  
C127     C      0.490200000000     0.776690000000     0.996630000000    -0.124251   
C128     C      0.487710000000     0.695080000000     0.952660000000    -0.0822396  
C129     C      0.539220000000     0.829740000000     0.942200000000    -0.0971854  
C130     C      0.526320000000     0.743810000000     0.951020000000     0.030785   
C131     C      0.517610000000     0.783770000000     0.962240000000     0.0584921  
C132     C      0.497980000000     0.657230000000     0.958830000000     0.076489   
C133     C      0.583040000000     0.713170000000     0.953150000000     0.0755425  
C134     C      0.574200000000     0.752520000000     0.948080000000    -0.0802716  
C135     C      0.509790000000     0.176110000000     0.053970000000     0.191676   
C136     C      0.564370000000     0.186800000000     0.111650000000     0.0774374  
C137     C      0.520760000000     0.224710000000     0.057070000000    -0.120383   
C138     C      0.588300000000     0.334160000000     0.048020000000    -0.0836969  
C139     C      0.575750000000     0.235770000000     0.115480000000    -0.09071    
C140     C      0.570470000000     0.308760000000     0.085080000000     0.0321508  
C141     C      0.554770000000     0.255530000000     0.087180000000     0.0547743  
C142     C      0.590480000000     0.378830000000     0.040050000000     0.0778501  
C143     C      0.564780000000     0.378550000000     0.106960000000     0.0760289  
C144     C      0.561010000000     0.332420000000     0.115810000000    -0.0791241  
C145     C      0.904090000000     0.352710000000     0.481780000000     0.188541   
C146     C      0.867370000000     0.394310000000     0.508250000000     0.0833175  
C147     C      0.856770000000     0.311820000000     0.472800000000    -0.119481   
C148     C      0.752310000000     0.220600000000     0.471560000000    -0.0775836  
C149     C      0.820710000000     0.354090000000     0.501150000000    -0.0958116  
C150     C      0.762460000000     0.269260000000     0.474260000000     0.0316621  
C151     C      0.813950000000     0.312080000000     0.482230000000     0.0555262  
C152     C      0.703460000000     0.181250000000     0.470180000000     0.0762653  
C153     C      0.673930000000     0.236380000000     0.472530000000     0.0783534  
C154     C      0.721810000000     0.276390000000     0.471800000000    -0.0793935  
C155     C      0.240110000000     0.732170000000     0.529880000000     0.190808   
C156     C      0.219730000000     0.712740000000     0.600000000000     0.0822181  
C157     C      0.279590000000     0.777760000000     0.541250000000    -0.124353   
C158     C      0.335270000000     0.882720000000     0.559560000000    -0.0819696  
C159     C      0.257700000000     0.759900000000     0.611800000000    -0.0923116  
C160     C      0.324480000000     0.846680000000     0.590820000000     0.0314975  
C161     C      0.286940000000     0.794030000000     0.581790000000     0.0559387  
C162     C      0.377150000000     0.928790000000     0.563360000000     0.0794415  
C163     C      0.393140000000     0.909600000000     0.631940000000     0.0754439  
C164     C      0.352640000000     0.861460000000     0.628320000000    -0.0793086  
C165     C      0.723190000000     0.581290000000     0.563750000000     0.20378    
C166     C      0.746600000000     0.633050000000     0.503730000000     0.0924942  
C167     C      0.770440000000     0.588470000000     0.568870000000    -0.127299   
C168     C      0.839180000000     0.562910000000     0.532380000000    -0.0869626  
C169     C      0.794030000000     0.640770000000     0.508240000000    -0.099426   
C170     C      0.847940000000     0.610190000000     0.537720000000     0.0353528  
C171     C      0.805240000000     0.616250000000     0.539830000000     0.0609777  
C172     C      0.878150000000     0.554790000000     0.533140000000     0.0906025  
C173     C      0.934980000000     0.639910000000     0.541850000000     0.088586   
C174     C      0.896260000000     0.649510000000     0.540970000000    -0.0825036  
C175     C      0.421520000000     0.675520000000     0.541070000000     0.186634   
C176     C      0.391010000000     0.604740000000     0.499870000000     0.0820669  
C177     C      0.382050000000     0.681360000000     0.525990000000    -0.125195   
C178     C      0.270180000000     0.626080000000     0.529040000000    -0.0798864  
C179     C      0.352980000000     0.610930000000     0.483350000000    -0.0981039  
C180     C      0.296980000000     0.640800000000     0.493600000000     0.0360195  
C181     C      0.346700000000     0.647880000000     0.497860000000     0.0552322  
C182     C      0.219620000000     0.603640000000     0.525500000000     0.0843319  
C183     C      0.221140000000     0.615450000000     0.452680000000     0.088276   
C184     C      0.272310000000     0.635790000000     0.454920000000    -0.0768952  
C185     C      0.067270000000     0.603870000000     0.879010000000     0.190551   
C186     C      0.009790000000     0.518690000000     0.873140000000     0.0808571  
C187     C      0.063250000000     0.609770000000     0.835930000000    -0.121526   
C188     C      0.071770000000     0.609250000000     0.743170000000    -0.0804298  
C189     C      0.006480000000     0.523380000000     0.830480000000    -0.0992173  
C190     C      0.031380000000     0.573510000000     0.764770000000     0.0297667  
C191     C      0.033430000000     0.569200000000     0.810920000000     0.0576616  
C192     C      0.070240000000     0.609370000000     0.699930000000     0.0795598  
C193     C      0.990180000000     0.539610000000     0.698720000000     0.081334   
C194     C      0.989630000000     0.539710000000     0.741550000000    -0.0806972  
C195     C      0.984580000000     0.549570000000     0.375410000000     0.195428   
C196     C      0.011770000000     0.491970000000     0.377930000000     0.0863896  
C197     C      0.980520000000     0.548000000000     0.332060000000    -0.120073   
C198     C      0.966680000000     0.531940000000     0.238260000000    -0.0771479  
C199     C      0.006900000000     0.488790000000     0.334970000000    -0.0958151  
C200     C      0.998160000000     0.523050000000     0.265260000000     0.035856   
C201     C      0.994160000000     0.519320000000     0.311180000000     0.0613527  
C202     C      0.972800000000     0.536120000000     0.195420000000     0.0815029  
C203     C      0.040230000000     0.523090000000     0.205510000000     0.0743559  
C204     C      0.035620000000     0.519390000000     0.248060000000    -0.0811201  
C205     C      0.904180000000     0.316880000000     0.050800000000     0.200092   
C206     C      0.874710000000     0.352480000000     0.998710000000     0.0880465  
C207     C      0.857280000000     0.276900000000     0.054530000000    -0.125761   
C208     C      0.765640000000     0.183180000000     0.039480000000    -0.0834876  
C209     C      0.827050000000     0.311850000000     0.001210000000    -0.0961242  
C210     C      0.768930000000     0.228930000000     0.033180000000     0.0338298  
C211     C      0.818000000000     0.273700000000     0.029800000000     0.0616645  
C212     C      0.720450000000     0.141180000000     0.044570000000     0.082344   
C213     C      0.680390000000     0.187650000000     0.036560000000     0.0797102  
C214     C      0.725640000000     0.231040000000     0.032070000000    -0.0794977  
C215     C      0.189730000000     0.663710000000     0.131600000000     0.203408   
C216     C      0.147000000000     0.707320000000     0.120020000000     0.0859679  
C217     C      0.233920000000     0.707870000000     0.137480000000    -0.121181   
C218     C      0.311400000000     0.797790000000     0.093620000000    -0.0804085  
C219     C      0.190860000000     0.752270000000     0.125590000000    -0.0939059  
C220     C      0.282980000000     0.797960000000     0.124620000000     0.0337335  
C221     C      0.235260000000     0.752720000000     0.131630000000     0.0598821  
C222     C      0.357620000000     0.838200000000     0.087590000000     0.0808341  
C223     C      0.348380000000     0.880640000000     0.141260000000     0.0731345  
C224     C      0.301050000000     0.840530000000     0.147860000000    -0.0821582  
C225     C      0.845180000000     0.447010000000     0.066740000000     0.185971   
C226     C      0.867150000000     0.477060000000     0.998490000000     0.0776086  
C227     C      0.799320000000     0.444180000000     0.058530000000    -0.120474   
C228     C      0.741030000000     0.498000000000     0.041600000000    -0.079661   
C229     C      0.821550000000     0.473190000000     0.989210000000    -0.093353   
C230     C      0.745930000000     0.468740000000     0.013600000000     0.0287126  
C231     C      0.787950000000     0.459390000000     0.019950000000     0.0519241  
C232     C      0.707270000000     0.513810000000     0.033140000000     0.0719064  
C233     C      0.679580000000     0.469740000000     0.970880000000     0.070001   
C234     C      0.714470000000     0.454410000000     0.977810000000    -0.0803193  
C235     C      0.239410000000     0.590100000000     0.011680000000     0.19481    
C236     C      0.196100000000     0.512670000000     0.979840000000     0.0787438  
C237     C      0.281330000000     0.585190000000     0.017420000000    -0.118218   
C238     C      0.335540000000     0.506740000000     0.992580000000    -0.0784559  
C239     C      0.237280000000     0.506600000000     0.985810000000    -0.0920501  
C240     C      0.323950000000     0.535070000000     0.016790000000     0.0285877  
C241     C      0.280450000000     0.542270000000     0.006280000000     0.0540005  
C242     C      0.376800000000     0.501580000000     0.003350000000     0.0685101  
C243     C      0.395450000000     0.550970000000     0.061680000000     0.0722983  
C244     C      0.354560000000     0.556450000000     0.052130000000    -0.0805243  
C245     C      0.709740000000     0.735560000000     0.596870000000     0.19196    
C246     C      0.673560000000     0.781240000000     0.568720000000     0.0858565  
C247     C      0.750420000000     0.778560000000     0.611930000000    -0.123407   
C248     C      0.847650000000     0.869830000000     0.610380000000    -0.082643   
C249     C      0.715090000000     0.825260000000     0.581510000000    -0.0927038  
C250     C      0.803750000000     0.870960000000     0.609430000000     0.0311113  
C251     C      0.755370000000     0.824620000000     0.602030000000     0.0561757  
C252     C      0.892810000000     0.913220000000     0.611250000000     0.0697731  
C253     C      0.853730000000     0.960220000000     0.612050000000     0.0732495  
C254     C      0.807540000000     0.917150000000     0.612090000000    -0.0824856  
C255     C      0.187280000000     0.253120000000     0.472930000000     0.189403   
C256     C      0.231030000000     0.243340000000     0.531380000000     0.0843267  
C257     C      0.231220000000     0.294040000000     0.459610000000    -0.119066   
C258     C      0.325820000000     0.397770000000     0.460670000000    -0.0816834  
C259     C      0.274970000000     0.283050000000     0.518420000000    -0.0947588  
C260     C      0.322910000000     0.352590000000     0.469750000000     0.0309342  
C261     C      0.275790000000     0.308770000000     0.481990000000     0.0556146  
C262     C      0.371820000000     0.440740000000     0.458970000000     0.0711173  
C263     C      0.411970000000     0.394730000000     0.469590000000     0.0738003  
C264     C      0.366630000000     0.351130000000     0.472090000000    -0.0830993  
C265     C      0.711640000000     0.055220000000     0.601990000000     0.194634   
C266     C      0.732270000000     0.124900000000     0.558650000000     0.0889129  
C267     C      0.752300000000     0.053650000000     0.589330000000    -0.122872   
C268     C      0.863310000000     0.120880000000     0.527620000000    -0.0824185  
C269     C      0.772650000000     0.124090000000     0.545110000000    -0.0935791  
C270     C      0.819360000000     0.079920000000     0.539700000000     0.0325515  
C271     C      0.781070000000     0.086000000000     0.558240000000     0.0587084  
C272     C      0.900320000000     0.114550000000     0.513530000000     0.0714694  
C273     C      0.850400000000     0.028040000000     0.519780000000     0.07812    
C274     C      0.812260000000     0.032970000000     0.533670000000    -0.0816472  
C275     C      0.198250000000     0.053980000000     0.508000000000     0.191359   
C276     C      0.177730000000     0.021320000000     0.576110000000     0.0813217  
C277     C      0.230750000000     0.036630000000     0.507230000000    -0.127007   
C278     C      0.305070000000     0.005390000000     0.510960000000    -0.0840911  
C279     C      0.209620000000     0.003040000000     0.575760000000    -0.0981672  
C280     C      0.284540000000     0.010930000000     0.545900000000     0.0305964  
C281     C      0.238950000000     0.013490000000     0.542040000000     0.0566084  
C282     C      0.355050000000     0.021100000000     0.511970000000     0.0734546  
C283     C      0.362640000000     0.039990000000     0.582830000000     0.0779267  
C284     C      0.313280000000     0.025440000000     0.582770000000    -0.0845142  
C285     C      0.071840000000     0.753740000000     0.484690000000     0.18706    
C286     C      0.112030000000     0.775050000000     0.551290000000     0.0810192  
C287     C      0.075460000000     0.799870000000     0.480520000000    -0.121048   
C288     C      0.101060000000     0.909230000000     0.479470000000    -0.0815969  
C289     C      0.116350000000     0.821030000000     0.547660000000    -0.0961997  
C290     C      0.090200000000     0.876400000000     0.513160000000     0.0310239  
C291     C      0.096330000000     0.833120000000     0.512720000000     0.0548391  
C292     C      0.090650000000     0.947340000000     0.480640000000     0.0745488  
C293     C      0.059220000000     0.920280000000     0.547260000000     0.0749734  
C294     C      0.069790000000     0.882810000000     0.547420000000    -0.0856803  
C295     C      0.095580000000     0.433300000000     0.625750000000     0.194836   
C296     C      0.008920000000     0.383920000000     0.627270000000     0.0838051  
C297     C      0.100570000000     0.392350000000     0.635570000000    -0.124339   
C298     C      0.036250000000     0.274950000000     0.594330000000    -0.0836241  
C299     C      0.012730000000     0.342320000000     0.636800000000    -0.0990378  
C300     C      0.062180000000     0.302030000000     0.629150000000     0.0310673  
C301     C      0.058750000000     0.345810000000     0.637540000000     0.0576704  
C302     C      0.042870000000     0.237420000000     0.582040000000     0.0733566  
C303     C      0.099380000000     0.250910000000     0.638690000000     0.0738901  
C304     C      0.094620000000     0.290240000000     0.651340000000    -0.0823132  
C305     C      0.018930000000     0.053020000000     0.892600000000     0.191676   
C306     C      0.031980000000     0.986160000000     0.885340000000     0.0885289  
C307     C      0.014500000000     0.057490000000     0.849590000000    -0.121761   
C308     C      0.993800000000     0.054790000000     0.756850000000    -0.0773331  
C309     C      0.026780000000     0.989340000000     0.842250000000    -0.091726   
C310     C      0.020630000000     0.035030000000     0.777670000000     0.028412   
C311     C      0.019710000000     0.026530000000     0.823610000000     0.0569978  
C312     C      0.999540000000     0.067180000000     0.714620000000     0.0752348  
C313     C      0.055530000000     0.038580000000     0.712320000000     0.0735797  
C314     C      0.051210000000     0.026450000000     0.754390000000    -0.0812064  
C315     C      0.087080000000     0.033380000000     0.227300000000     0.198026   
C316     C      0.011100000000     0.958530000000     0.223400000000     0.0864676  
C317     C      0.080660000000     0.037760000000     0.268830000000    -0.123373   
C318     C      0.041370000000     0.061850000000     0.340600000000    -0.0763421  
C319     C      0.003250000000     0.962300000000     0.264690000000    -0.0957246  
C320     C      0.025480000000     0.013650000000     0.328650000000     0.0286962  
C321     C      0.036770000000     0.004010000000     0.287210000000     0.0597718  
C322     C      0.031840000000     0.070750000000     0.379780000000     0.0720189  
C323     C      0.988520000000     0.985370000000     0.395080000000     0.0792908  
C324     C      0.997830000000     0.975190000000     0.356320000000    -0.077806   
C325     C      0.884050000000     0.879010000000     0.970830000000     0.199071   
C326     C      0.858090000000     0.921710000000     0.010740000000     0.0922494  
C327     C      0.837510000000     0.837180000000     0.972000000000    -0.126206   
C328     C      0.769810000000     0.749610000000     0.021650000000    -0.0812846  
C329     C      0.811610000000     0.880470000000     0.013170000000    -0.0954916  
C330     C      0.761920000000     0.788940000000     0.012010000000     0.0340055  
C331     C      0.802750000000     0.836230000000     0.997190000000     0.0612033  
C332     C      0.732710000000     0.706190000000     0.038360000000     0.0768225  
C333     C      0.680940000000     0.740330000000     0.038330000000     0.0828274  
C334     C      0.717000000000     0.784090000000     0.020970000000    -0.0855009  
C335     C      0.232760000000     0.169270000000     0.076020000000     0.197374   
C336     C      0.189000000000     0.207560000000     0.095040000000     0.0901681  
C337     C      0.269390000000     0.213610000000     0.060290000000    -0.129751   
C338     C      0.325780000000     0.304170000000     0.006900000000    -0.0834397  
C339     C      0.225150000000     0.252550000000     0.079670000000    -0.101692   
C340     C      0.303560000000     0.301770000000     0.043740000000     0.0307292  
C341     C      0.264210000000     0.254960000000     0.059770000000     0.0590309  
C342     C      0.371890000000     0.344700000000     0.999150000000     0.075133   
C343     C      0.370590000000     0.381060000000     0.061050000000     0.0822243  
C344     C      0.324530000000     0.342370000000     0.069140000000    -0.0849848  
C345     C      0.668190000000     0.952560000000     0.143840000000     0.196698   
C346     C      0.700510000000     0.994250000000     0.080390000000     0.0899335  
C347     C      0.713870000000     0.957400000000     0.155970000000    -0.125044   
C348     C      0.844410000000     0.027110000000     0.138940000000    -0.0766482  
C349     C      0.746330000000     0.000740000000     0.092280000000    -0.101433   
C350     C      0.799840000000     0.982580000000     0.139220000000     0.0300059  
C351     C      0.753160000000     0.981650000000     0.130040000000     0.0616216  
C352     C      0.888210000000     0.026840000000     0.136930000000     0.0786951  
C353     C      0.844650000000     0.939700000000     0.137780000000     0.073804   
C354     C      0.800340000000     0.938590000000     0.140750000000    -0.0809674  
C355     C      0.369620000000     0.984950000000     0.980730000000     0.20245    
C356     C      0.351370000000     0.971340000000     0.051730000000     0.0922608  
C357     C      0.324600000000     0.982880000000     0.971070000000    -0.118855   
C358     C      0.205790000000     0.943850000000     0.013830000000    -0.0844228  
C359     C      0.306340000000     0.967750000000     0.042880000000    -0.0951928  
C360     C      0.248630000000     0.978970000000     0.995350000000     0.037919   
C361     C      0.293360000000     0.975540000000     0.002550000000     0.0613156  
C362     C      0.168480000000     0.953830000000     0.018490000000     0.084964   
C363     C      0.211890000000     0.029870000000     0.982160000000     0.087777   
C364     C      0.250820000000     0.021470000000     0.977680000000    -0.0803648  
C365     C      0.036600000000     0.847730000000     0.097830000000     0.190724   
C366     C      0.973100000000     0.825290000000     0.045620000000     0.0780946  
C367     C      0.050060000000     0.816210000000     0.081990000000    -0.124247   
C368     C      0.092820000000     0.770100000000     0.032350000000    -0.0807227  
C369     C      0.986650000000     0.794280000000     0.028290000000    -0.0903035  
C370     C      0.043630000000     0.759290000000     0.027500000000     0.0325282  
C371     C      0.026920000000     0.790810000000     0.045610000000     0.0496924  
C372     C      0.105460000000     0.735530000000     0.021400000000     0.0755515  
C373     C      0.023740000000     0.683050000000     0.996460000000     0.0735566  
C374     C      0.009760000000     0.716100000000     0.007330000000    -0.0849405  
C375     C      0.022050000000     0.183280000000     0.059990000000     0.191519   
C376     C      0.101360000000     0.214510000000     0.034690000000     0.087934   
C377     C      0.035090000000     0.230640000000     0.072140000000    -0.124258   
C378     C      0.079430000000     0.333700000000     0.109030000000    -0.0756256  
C379     C      0.115220000000     0.261760000000     0.046470000000    -0.100875   
C380     C      0.094650000000     0.321440000000     0.073980000000     0.0347635  
C381     C      0.082360000000     0.270340000000     0.066100000000     0.059432   
C382     C      0.081610000000     0.379260000000     0.110170000000     0.0884603  
C383     C      0.117390000000     0.401410000000     0.045080000000     0.0838048  
C384     C      0.117090000000     0.357500000000     0.043350000000    -0.0835369  
Co1      Co     0.039850000000     0.066270000000     0.101140000000     0.993517   
Co2      Co     0.042940000000     0.961550000000     0.027930000000     1.08109    
Co3      Co     0.098890000000     0.073690000000     0.017770000000     1.13951    
Co4      Co     0.983020000000     0.973450000000     0.087510000000     1.05685    
Co5      Co     0.084830000000     0.091210000000     0.494610000000     1.07899    
Co6      Co     0.001030000000     0.101260000000     0.573510000000     1.05196    
Co7      Co     0.985250000000     0.006380000000     0.533490000000     1.09933    
Co8      Co     0.105320000000     0.111960000000     0.592660000000     1.07593    
Co9      Co     0.040980000000     0.476220000000     0.993940000000     1.14049    
Co10     Co     0.015510000000     0.569810000000     0.056080000000     0.916518   
Co11     Co     0.012570000000     0.469020000000     0.087370000000     1.11113    
Co12     Co     0.091860000000     0.586740000000     0.024460000000     1.09211    
Co13     Co     0.059380000000     0.501010000000     0.515250000000     1.13155    
Co14     Co     0.070910000000     0.619400000000     0.558320000000     1.09724    
Co15     Co     0.980630000000     0.504380000000     0.565540000000     1.2065     
Co16     Co     0.084470000000     0.613040000000     0.486300000000     0.904547   
Co17     Co     0.497450000000     0.021370000000     0.110680000000     1.05517    
Co18     Co     0.580930000000     0.001910000000     0.020930000000     1.05796    
Co19     Co     0.527510000000     0.044340000000     0.021760000000     1.07646    
Co20     Co     0.518200000000     0.934010000000     0.099480000000     1.19531    
Co21     Co     0.517760000000     0.089420000000     0.604650000000     1.0981     
Co22     Co     0.579260000000     0.054530000000     0.521330000000     1.02422    
Co23     Co     0.521450000000     0.111000000000     0.505770000000     1.17699    
Co24     Co     0.547610000000     0.009200000000     0.582290000000     0.940993   
Co25     Co     0.539810000000     0.476470000000     0.983260000000     0.881561   
Co26     Co     0.547010000000     0.590230000000     0.059450000000     1.12282    
Co27     Co     0.514010000000     0.481990000000     0.050210000000     1.05506    
Co28     Co     0.623420000000     0.591890000000     0.999040000000     1.13411    
Co29     Co     0.562820000000     0.523010000000     0.514800000000     1.07643    
Co30     Co     0.532260000000     0.626090000000     0.542850000000     1.04242    
Co31     Co     0.474640000000     0.534160000000     0.543470000000     0.941608   
Co32     Co     0.613030000000     0.635680000000     0.486970000000     1.17288    
H1       H      0.585180000000     0.653650000000     0.668430000000     0.0436526  
H2       H      0.480060000000     0.501610000000     0.876920000000     0.0301029  
H3       H      0.485710000000     0.494780000000     0.740440000000     0.054974   
H4       H      0.469620000000     0.511340000000     0.803660000000     0.0572061  
H5       H      0.593480000000     0.649750000000     0.743180000000     0.061311   
H6       H      0.621570000000     0.624530000000     0.799970000000     0.085092   
H7       H      0.476310000000     0.501020000000     0.666500000000     0.0310608  
H8       H      0.563820000000     0.482740000000     0.394880000000     0.0266071  
H9       H      0.488030000000     0.463180000000     0.175990000000     0.0350256  
H10      H      0.562340000000     0.605470000000     0.295320000000     0.0597346  
H11      H      0.491990000000     0.461180000000     0.251350000000     0.0600379  
H12      H      0.556070000000     0.467220000000     0.320530000000     0.056063   
H13      H      0.628030000000     0.598650000000     0.251310000000     0.0843197  
H14      H      0.569340000000     0.619630000000     0.368180000000     0.0317221  
H15      H      0.622340000000     0.756350000000     0.435650000000     0.0267514  
H16      H      0.519440000000     0.892320000000     0.531790000000     0.0386284  
H17      H      0.470010000000     0.758890000000     0.451870000000     0.0573821  
H18      H      0.503640000000     0.817700000000     0.504320000000     0.0706947  
H19      H      0.625080000000     0.833930000000     0.430720000000     0.0577825  
H20      H      0.607740000000     0.897290000000     0.410880000000     0.0807112  
H21      H      0.469510000000     0.681520000000     0.458270000000     0.030046   
H22      H      0.431560000000     0.379220000000     0.564820000000     0.0255107  
H23      H      0.498670000000     0.216020000000     0.520590000000     0.024386   
H24      H      0.583360000000     0.387030000000     0.623840000000     0.0614892  
H25      H      0.483630000000     0.281110000000     0.531610000000     0.0565452  
H26      H      0.434980000000     0.303750000000     0.572460000000     0.0512845  
H27      H      0.555640000000     0.303250000000     0.652220000000     0.0820455  
H28      H      0.578060000000     0.460910000000     0.616500000000     0.0517748  
H29      H      0.602380000000     0.142370000000     0.698420000000     0.0468633  
H30      H      0.592860000000     0.022680000000     0.915960000000     0.0231614  
H31      H      0.546040000000     0.991000000000     0.783340000000     0.0592989  
H32      H      0.604820000000     0.027280000000     0.843600000000     0.061605   
H33      H      0.603490000000     0.147420000000     0.772850000000     0.0628705  
H34      H      0.537260000000     0.115920000000     0.824530000000     0.085791   
H35      H      0.545530000000     0.987200000000     0.708950000000     0.0351202  
H36      H      0.481610000000     0.064690000000     0.391110000000     0.0256588  
H37      H      0.495630000000     0.911400000000     0.221210000000     0.0349073  
H38      H      0.518830000000     0.933840000000     0.368140000000     0.0620049  
H39      H      0.480820000000     0.910690000000     0.293530000000     0.0622405  
H40      H      0.490090000000     0.047660000000     0.321440000000     0.0594678  
H41      H      0.573640000000     0.067920000000     0.294760000000     0.0881128  
H42      H      0.507960000000     0.950800000000     0.438040000000     0.0337573  
H43      H      0.467370000000     0.620400000000     0.963940000000     0.0303953  
H44      H      0.553970000000     0.903580000000     0.942640000000     0.0230331  
H45      H      0.605060000000     0.789670000000     0.946270000000     0.0545307  
H46      H      0.560360000000     0.836520000000     0.915240000000     0.0598448  
H47      H      0.450030000000     0.686640000000     0.953520000000     0.0588871  
H48      H      0.472540000000     0.741400000000     0.012690000000     0.0830731  
H49      H      0.620840000000     0.721520000000     0.954670000000     0.0318681  
H50      H      0.600670000000     0.394880000000     0.009480000000     0.0289029  
H51      H      0.582770000000     0.173440000000     0.133330000000     0.0427755  
H52      H      0.547350000000     0.313930000000     0.145070000000     0.0583929  
H53      H      0.602230000000     0.258480000000     0.139270000000     0.0627777  
H54      H      0.596920000000     0.317690000000     0.023810000000     0.0599828  
H55      H      0.502900000000     0.238760000000     0.035500000000     0.0860381  
H56      H      0.553560000000     0.394280000000     0.129860000000     0.0342363  
H57      H      0.697550000000     0.144310000000     0.469780000000     0.0449204  
H58      H      0.869030000000     0.425320000000     0.522890000000     0.0215907  
H59      H      0.726390000000     0.312750000000     0.470530000000     0.0550246  
H60      H      0.790200000000     0.356430000000     0.511540000000     0.0579928  
H61      H      0.781570000000     0.212260000000     0.472560000000     0.0538107  
H62      H      0.853900000000     0.280490000000     0.457960000000     0.0802256  
H63      H      0.644220000000     0.244080000000     0.473120000000     0.02985    
H64      H      0.387420000000     0.953410000000     0.536650000000     0.0244059  
H65      H      0.196700000000     0.688390000000     0.623980000000     0.0362759  
H66      H      0.345670000000     0.835430000000     0.653610000000     0.0560532  
H67      H      0.262520000000     0.769990000000     0.643870000000     0.058621   
H68      H      0.313340000000     0.874690000000     0.530870000000     0.057688   
H69      H      0.303640000000     0.801280000000     0.517510000000     0.0823233  
H70      H      0.416550000000     0.919050000000     0.659940000000     0.0243533  
H71      H      0.869360000000     0.517150000000     0.529630000000     0.0309626  
H72      H      0.738810000000     0.651080000000     0.477480000000     0.0251771  
H73      H      0.903840000000     0.686720000000     0.544260000000     0.0590147  
H74      H      0.820450000000     0.662620000000     0.485330000000     0.0642539  
H75      H      0.802120000000     0.532040000000     0.528380000000     0.0602789  
H76      H      0.779320000000     0.570150000000     0.594210000000     0.085182   
H77      H      0.972200000000     0.670470000000     0.546070000000     0.0356087  
H78      H      0.200340000000     0.590710000000     0.553960000000     0.0518055  
H79      H      0.392700000000     0.573980000000     0.488380000000     0.0356727  
H80      H      0.292110000000     0.645610000000     0.426800000000     0.059308   
H81      H      0.325920000000     0.583880000000     0.462130000000     0.0603543  
H82      H      0.287770000000     0.628000000000     0.559280000000     0.0659463  
H83      H      0.377140000000     0.709850000000     0.538160000000     0.0822719  
H84      H      0.202440000000     0.611110000000     0.422600000000     0.0319432  
H85      H      0.102500000000     0.636940000000     0.684450000000     0.0351886  
H86      H      0.987980000000     0.481840000000     0.885860000000     0.0304555  
H87      H      0.956480000000     0.512750000000     0.756160000000     0.0541085  
H88      H      0.983720000000     0.490290000000     0.813110000000     0.0597089  
H89      H      0.105180000000     0.636020000000     0.759280000000     0.0582938  
H90      H      0.083750000000     0.646160000000     0.822200000000     0.0815415  
H91      H      0.957420000000     0.511930000000     0.682310000000     0.0247252  
H92      H      0.947560000000     0.542420000000     0.175460000000     0.0383708  
H93      H      0.024540000000     0.469540000000     0.394480000000     0.0353729  
H94      H      0.062090000000     0.514370000000     0.267340000000     0.0593958  
H95      H      0.015010000000     0.463710000000     0.320520000000     0.0632803  
H96      H      0.937070000000     0.534980000000     0.249910000000     0.061511   
H97      H      0.968130000000     0.570350000000     0.314950000000     0.0853185  
H98      H      0.069880000000     0.519830000000     0.194040000000     0.0427     
H99      H      0.720130000000     0.106730000000     0.049020000000     0.0306883  
H100     H      0.880280000000     0.382280000000     0.977420000000     0.0264341  
H101     H      0.726710000000     0.265810000000     0.027960000000     0.0578133  
H102     H      0.797700000000     0.310320000000     0.980970000000     0.0598928  
H103     H      0.797850000000     0.179420000000     0.039890000000     0.0611604  
H104     H      0.851850000000     0.248000000000     0.076750000000     0.0872573  
H105     H      0.647410000000     0.190240000000     0.034700000000     0.0371552  
H106     H      0.377830000000     0.836220000000     0.062830000000     0.0529947  
H107     H      0.113860000000     0.708620000000     0.111900000000     0.0268695  
H108     H      0.279560000000     0.842150000000     0.171710000000     0.0582247  
H109     H      0.190430000000     0.786320000000     0.121510000000     0.0586847  
H110     H      0.298020000000     0.766190000000     0.074100000000     0.0797961  
H111     H      0.267650000000     0.707270000000     0.144190000000     0.0903841  
H112     H      0.362250000000     0.912450000000     0.160600000000     0.0274155  
H113     H      0.705860000000     0.537140000000     0.055790000000     0.0422932  
H114     H      0.892990000000     0.490790000000     0.974030000000     0.0349461  
H115     H      0.717230000000     0.432040000000     0.955100000000     0.0544684  
H116     H      0.814390000000     0.484870000000     0.958890000000     0.059245   
H117     H      0.764840000000     0.510640000000     0.069270000000     0.0601231  
H118     H      0.773590000000     0.432410000000     0.082860000000     0.0806945  
H119     H      0.656110000000     0.458230000000     0.942950000000     0.0296054  
H120     H      0.384630000000     0.480030000000     0.983490000000     0.0346035  
H121     H      0.163680000000     0.483350000000     0.964460000000     0.0235742  
H122     H      0.346990000000     0.577260000000     0.072950000000     0.0604731  
H123     H      0.234280000000     0.473020000000     0.975650000000     0.0537069  
H124     H      0.313580000000     0.489350000000     0.964910000000     0.0521108  
H125     H      0.314770000000     0.615370000000     0.030710000000     0.0837792  
H126     H      0.417780000000     0.568840000000     0.089180000000     0.0305561  
H127     H      0.925330000000     0.910040000000     0.610460000000     0.0274971  
H128     H      0.644260000000     0.783450000000     0.551230000000     0.0337837  
H129     H      0.775200000000     0.920450000000     0.612930000000     0.0552634  
H130     H      0.716290000000     0.859420000000     0.573110000000     0.0588229  
H131     H      0.847870000000     0.835920000000     0.607940000000     0.0551599  
H132     H      0.778430000000     0.775560000000     0.630650000000     0.081454   
H133     H      0.855000000000     0.995190000000     0.612040000000     0.0264826  
H134     H      0.372480000000     0.475360000000     0.454730000000     0.0289067  
H135     H      0.233350000000     0.224980000000     0.559850000000     0.0268813  
H136     H      0.365950000000     0.316720000000     0.478080000000     0.0538618  
H137     H      0.308250000000     0.294020000000     0.537430000000     0.0564795  
H138     H      0.292990000000     0.400540000000     0.458090000000     0.0573473  
H139     H      0.230550000000     0.314150000000     0.431760000000     0.0820457  
H140     H      0.444860000000     0.392120000000     0.474170000000     0.0243992  
H141     H      0.934640000000     0.147450000000     0.506450000000     0.0335502  
H142     H      0.725660000000     0.153610000000     0.546280000000     0.0302948  
H143     H      0.777990000000     0.000160000000     0.540790000000     0.0571051  
H144     H      0.794970000000     0.151390000000     0.522460000000     0.0579933  
H145     H      0.870440000000     0.157900000000     0.531020000000     0.0546039  
H146     H      0.760610000000     0.026530000000     0.603020000000     0.0787375  
H147     H      0.844590000000     0.991250000000     0.517890000000     0.0273275  
H148     H      0.370520000000     0.019270000000     0.483740000000     0.0277631  
H149     H      0.157610000000     0.014550000000     0.603770000000     0.028144   
H150     H      0.299300000000     0.030120000000     0.610700000000     0.0542876  
H151     H      0.213560000000     0.983680000000     0.602890000000     0.0555534  
H152     H      0.283640000000     0.992510000000     0.482160000000     0.0558298  
H153     H      0.252250000000     0.044810000000     0.480290000000     0.0823431  
H154     H      0.384010000000     0.053290000000     0.611660000000     0.0280973  
H155     H      0.098700000000     0.971910000000     0.454020000000     0.0375049  
H156     H      0.127520000000     0.767490000000     0.579590000000     0.0354808  
H157     H      0.060370000000     0.857850000000     0.573860000000     0.0545019  
H158     H      0.133550000000     0.846320000000     0.572980000000     0.0570137  
H159     H      0.116970000000     0.905210000000     0.452450000000     0.059455   
H160     H      0.059680000000     0.808690000000     0.453110000000     0.0826087  
H161     H      0.042880000000     0.923270000000     0.574510000000     0.0341911  
H162     H      0.022100000000     0.218170000000     0.554410000000     0.0313892  
H163     H      0.972320000000     0.378770000000     0.622870000000     0.0278184  
H164     H      0.116060000000     0.311230000000     0.678020000000     0.0557176  
H165     H      0.979530000000     0.306840000000     0.639210000000     0.0612539  
H166     H      0.012010000000     0.283830000000     0.575570000000     0.0617605  
H167     H      0.136770000000     0.396380000000     0.637770000000     0.0826995  
H168     H      0.124180000000     0.242020000000     0.656530000000     0.026546   
H169     H      0.978820000000     0.083080000000     0.699950000000     0.0278733  
H170     H      0.039490000000     0.958080000000     0.898020000000     0.0359726  
H171     H      0.073350000000     0.012050000000     0.768710000000     0.0535048  
H172     H      0.029370000000     0.963230000000     0.823730000000     0.0606673  
H173     H      0.968710000000     0.061120000000     0.772990000000     0.0575831  
H174     H      0.008140000000     0.086190000000     0.836700000000     0.0804944  
H175     H      0.080360000000     0.031820000000     0.696110000000     0.0317735  
H176     H      0.045990000000     0.108630000000     0.388040000000     0.0399619  
H177     H      0.982100000000     0.927790000000     0.206260000000     0.0415784  
H178     H      0.984540000000     0.937340000000     0.348750000000     0.056049   
H179     H      0.969290000000     0.934370000000     0.277630000000     0.0629414  
H180     H      0.061280000000     0.092830000000     0.319870000000     0.0608982  
H181     H      0.109370000000     0.068350000000     0.286220000000     0.0858724  
H182     H      0.968080000000     0.954420000000     0.415760000000     0.0282601  
H183     H      0.739890000000     0.676290000000     0.044740000000     0.0297371  
H184     H      0.865000000000     0.953920000000     0.027110000000     0.0381233  
H185     H      0.709440000000     0.813630000000     0.014360000000     0.0539781  
H186     H      0.785180000000     0.882230000000     0.031500000000     0.0594964  
H187     H      0.804740000000     0.752430000000     0.016960000000     0.0599433  
H188     H      0.829890000000     0.804570000000     0.955960000000     0.0841259  
H189     H      0.646310000000     0.737710000000     0.044170000000     0.0294308  
H190     H      0.390730000000     0.344420000000     0.972540000000     0.0256591  
H191     H      0.157460000000     0.206240000000     0.107710000000     0.0277577  
H192     H      0.308120000000     0.342220000000     0.097440000000     0.0576438  
H193     H      0.221600000000     0.284710000000     0.081970000000     0.0561604  
H194     H      0.309510000000     0.273460000000     0.986120000000     0.0566953  
H195     H      0.301920000000     0.215830000000     0.048880000000     0.0853188  
H196     H      0.387700000000     0.410620000000     0.083100000000     0.0332713  
H197     H      0.921990000000     0.061910000000     0.135480000000     0.045514   
H198     H      0.697240000000     0.009530000000     0.050460000000     0.0252142  
H199     H      0.766390000000     0.903530000000     0.140890000000     0.0586361  
H200     H      0.775920000000     0.019110000000     0.071210000000     0.0661077  
H201     H      0.845110000000     0.061810000000     0.138050000000     0.0658789  
H202     H      0.718520000000     0.941640000000     0.185150000000     0.0856815  
H203     H      0.843260000000     0.904760000000     0.136470000000     0.0391467  
H204     H      0.136800000000     0.926350000000     0.034720000000     0.0302091  
H205     H      0.360370000000     0.966800000000     0.083900000000     0.0257768  
H206     H      0.283670000000     0.049510000000     0.963270000000     0.0676626  
H207     H      0.282960000000     0.961570000000     0.068130000000     0.0663945  
H208     H      0.202520000000     0.910220000000     0.027220000000     0.0563854  
H209     H      0.314510000000     0.987910000000     0.939410000000     0.08607    
H210     H      0.215370000000     0.064100000000     0.970120000000     0.0314912  
H211     H      0.142730000000     0.743410000000     0.028310000000     0.0370273  
H212     H      0.944310000000     0.829820000000     0.029760000000     0.034416   
H213     H      0.971630000000     0.705850000000     0.002180000000     0.057585   
H214     H      0.967030000000     0.775190000000     0.000370000000     0.0611946  
H215     H      0.121090000000     0.804100000000     0.046040000000     0.0520803  
H216     H      0.079000000000     0.812230000000     0.098050000000     0.0794477  
H217     H      0.995370000000     0.649140000000     0.982510000000     0.036793   
H218     H      0.065360000000     0.385950000000     0.135630000000     0.0343242  
H219     H      0.128800000000     0.210180000000     0.020140000000     0.0250101  
H220     H      0.129960000000     0.350230000000     0.015940000000     0.0539453  
H221     H      0.151780000000     0.291520000000     0.040160000000     0.0546666  
H222     H      0.063020000000     0.307160000000     0.133940000000     0.0632283  
H223     H      0.007680000000     0.236710000000     0.084580000000     0.0929331  
H224     H      0.130450000000     0.426140000000     0.018690000000     0.0208858  
N1       N      0.556440000000     0.557180000000     0.881690000000    -0.213225   
N2       N      0.529780000000     0.577880000000     0.661990000000    -0.200324   
N3       N      0.554270000000     0.533030000000     0.170210000000    -0.213903   
N4       N      0.568170000000     0.552670000000     0.387080000000    -0.204707   
N5       N      0.573640000000     0.940200000000     0.488540000000    -0.205147   
N6       N      0.546590000000     0.714140000000     0.451130000000    -0.208349   
N7       N      0.535230000000     0.219580000000     0.580070000000    -0.221778   
N8       N      0.505520000000     0.425690000000     0.588000000000    -0.202385   
N9       N      0.557180000000     0.065830000000     0.913110000000    -0.208614   
N10      N      0.572520000000     0.064210000000     0.698440000000    -0.205367   
N11      N      0.539350000000     0.990220000000     0.215420000000    -0.222626   
N12      N      0.498360000000     0.011620000000     0.419480000000    -0.212155   
N13      N      0.512020000000     0.861770000000     0.994300000000    -0.225147   
N14      N      0.545530000000     0.666960000000     0.962720000000    -0.202147   
N15      N      0.533160000000     0.157630000000     0.080220000000    -0.209768   
N16      N      0.575830000000     0.399400000000     0.068140000000    -0.201238   
N17      N      0.909200000000     0.394310000000     0.498960000000    -0.220376   
N18      N      0.664850000000     0.189050000000     0.473670000000    -0.198221   
N19      N      0.208880000000     0.699940000000     0.559060000000    -0.213437   
N20      N      0.406280000000     0.941620000000     0.598790000000    -0.203368   
N21      N      0.710470000000     0.601070000000     0.529540000000    -0.224434   
N22      N      0.925550000000     0.592550000000     0.539650000000    -0.216422   
N23      N      0.424430000000     0.635630000000     0.529390000000    -0.202223   
N24      N      0.195170000000     0.598380000000     0.487760000000    -0.201077   
N25      N      0.040930000000     0.557940000000     0.897650000000    -0.219057   
N26      N      0.030380000000     0.573720000000     0.678060000000    -0.210243   
N27      N      0.004510000000     0.524940000000     0.397980000000    -0.211891   
N28      N      0.008950000000     0.531030000000     0.179250000000    -0.200127   
N29      N      0.912470000000     0.355740000000     0.024430000000    -0.225025   
N30      N      0.677950000000     0.143020000000     0.041890000000    -0.205306   
N31      N      0.147450000000     0.664050000000     0.118840000000    -0.215868   
N32      N      0.376980000000     0.878590000000     0.112210000000    -0.20366    
N33      N      0.880390000000     0.467100000000     0.037510000000    -0.209275   
N34      N      0.676880000000     0.500240000000     0.997950000000    -0.198072   
N35      N      0.195560000000     0.552370000000     0.995090000000    -0.210827   
N36      N      0.407080000000     0.524270000000     0.037320000000    -0.199777   
N37      N      0.672620000000     0.737400000000     0.573830000000    -0.217125   
N38      N      0.895770000000     0.958130000000     0.609430000000    -0.204201   
N39      N      0.187390000000     0.227100000000     0.508570000000    -0.211102   
N40      N      0.414540000000     0.439510000000     0.466400000000    -0.198401   
N41      N      0.698670000000     0.087120000000     0.582490000000    -0.216524   
N42      N      0.895230000000     0.068720000000     0.512720000000    -0.20182    
N43      N      0.174160000000     0.049140000000     0.543620000000    -0.22135    
N44      N      0.383990000000     0.040990000000     0.547050000000    -0.210109   
N45      N      0.088420000000     0.740610000000     0.520960000000    -0.198549   
N46      N      0.068860000000     0.951930000000     0.513990000000    -0.203251   
N47      N      0.049630000000     0.427630000000     0.617120000000    -0.220773   
N48      N      0.073790000000     0.224990000000     0.604110000000    -0.203999   
N49      N      0.030460000000     0.019100000000     0.910440000000    -0.214835   
N50      N      0.030870000000     0.059910000000     0.692680000000    -0.201564   
N51      N      0.050050000000     0.996400000000     0.203820000000    -0.215718   
N52      N      0.006900000000     0.032890000000     0.407330000000    -0.202327   
N53      N      0.895580000000     0.918130000000     0.995360000000    -0.216597   
N54      N      0.688220000000     0.701200000000     0.045610000000    -0.212139   
N55      N      0.190410000000     0.165640000000     0.088960000000    -0.223455   
N56      N      0.395330000000     0.379980000000     0.028320000000    -0.189239   
N57      N      0.661420000000     0.970300000000     0.105580000000    -0.224897   
N58      N      0.887790000000     0.983510000000     0.133450000000    -0.188389   
N59      N      0.384070000000     0.982450000000     0.021550000000    -0.214566   
N60      N      0.172490000000     0.997450000000     0.004480000000    -0.207494   
N61      N      0.000120000000     0.854060000000     0.078340000000    -0.220059   
N62      N      0.070120000000     0.690920000000     0.006330000000    -0.182185   
N63      N      0.056180000000     0.174870000000     0.043350000000    -0.220689   
N64      N      0.095900000000     0.410210000000     0.076320000000    -0.202747   
O1       O      0.016310000000     0.092560000000     0.058350000000    -0.422474   
O2       O      0.973670000000     0.933490000000     0.010710000000    -0.427101   
O3       O      0.054780000000     0.056460000000     0.972810000000    -0.452893   
O4       O      0.926550000000     0.943980000000     0.113850000000    -0.41047    
O5       O      0.048300000000     0.985080000000     0.969310000000    -0.425734   
O6       O      0.968980000000     0.024270000000     0.115670000000    -0.458524   
O7       O      0.949260000000     0.977170000000     0.039230000000    -0.435933   
O8       O      0.082900000000     0.123320000000     0.026540000000    -0.453152   
O9       O      0.062730000000     0.045400000000     0.147320000000    -0.44018    
O10      O      0.107310000000     0.982180000000     0.040270000000    -0.456649   
O11      O      0.143880000000     0.091080000000     0.062070000000    -0.450631   
O12      O      0.963930000000     0.901970000000     0.078530000000    -0.366706   
O13      O      0.039740000000     0.935270000000     0.081060000000    -0.430377   
O14      O      0.108160000000     0.118170000000     0.098430000000    -0.420283   
O15      O      0.013920000000     0.968080000000     0.139720000000    -0.415099   
O16      O      0.132620000000     0.041790000000     0.996870000000    -0.441569   
O17      O      0.046430000000     0.018380000000     0.057220000000    -0.539287   
O18      O      0.030570000000     0.085030000000     0.461550000000    -0.424362   
O19      O      0.051520000000     0.162790000000     0.560480000000    -0.447103   
O20      O      0.933620000000     0.023550000000     0.519810000000    -0.426902   
O21      O      0.149740000000     0.163940000000     0.555820000000    -0.431636   
O22      O      0.977320000000     0.102370000000     0.519460000000    -0.424003   
O23      O      0.109110000000     0.160270000000     0.497720000000    -0.392294   
O24      O      0.096670000000     0.165860000000     0.613230000000    -0.419008   
O25      O      0.988390000000     0.007570000000     0.474170000000    -0.440293   
O26      O      0.144120000000     0.098070000000     0.518920000000    -0.439984   
O27      O      0.941860000000     0.039730000000     0.590880000000    -0.425014   
O28      O      0.028490000000     0.984360000000     0.542680000000    -0.460326   
O29      O      0.067600000000     0.066960000000     0.632620000000    -0.444298   
O30      O      0.019780000000     0.098020000000     0.633370000000    -0.42072    
O31      O      0.069630000000     0.021780000000     0.487930000000    -0.413611   
O32      O      0.124050000000     0.065820000000     0.579480000000    -0.44156    
O33      O      0.974520000000     0.995000000000     0.590060000000    -0.445231   
O34      O      0.044160000000     0.077090000000     0.548790000000    -0.522616   
O35      O      0.971000000000     0.431300000000     0.998970000000    -0.445548   
O36      O      0.038780000000     0.608170000000     0.006460000000    -0.462966   
O37      O      0.946070000000     0.466940000000     0.076090000000    -0.376148   
O38      O      0.077370000000     0.580310000000     0.963260000000    -0.391927   
O39      O      0.959960000000     0.523320000000     0.027690000000    -0.423466   
O40      O      0.020920000000     0.505490000000     0.953110000000    -0.479692   
O41      O      0.119760000000     0.655210000000     0.014270000000    -0.364547   
O42      O      0.980870000000     0.409260000000     0.060490000000    -0.460703   
O43      O      0.111280000000     0.514430000000     0.982610000000    -0.439419   
O44      O      0.988990000000     0.542720000000     0.111240000000    -0.391711   
O45      O      0.068780000000     0.461250000000     0.096530000000    -0.415939   
O46      O      0.117530000000     0.596390000000     0.079560000000    -0.406971   
O47      O      0.069910000000     0.623200000000     0.087790000000    -0.440094   
O48      O      0.062770000000     0.442740000000     0.030990000000    -0.464006   
O49      O      0.148090000000     0.582740000000     0.016590000000    -0.394424   
O50      O      0.042780000000     0.521380000000     0.123340000000    -0.448875   
O51      O      0.044560000000     0.520030000000     0.040270000000    -0.573352   
O52      O      0.994190000000     0.438110000000     0.512820000000    -0.416677   
O53      O      0.094400000000     0.683980000000     0.564490000000    -0.42062    
O54      O      0.950540000000     0.537560000000     0.549950000000    -0.521192   
O55      O      0.026890000000     0.574050000000     0.454390000000    -0.394582   
O56      O      0.006100000000     0.613810000000     0.550910000000    -0.441857   
O57      O      0.040120000000     0.511770000000     0.457960000000    -0.421855   
O58      O      0.064210000000     0.661210000000     0.500480000000    -0.390224   
O59      O      0.954180000000     0.474780000000     0.515570000000    -0.48487    
O60      O      0.123140000000     0.549170000000     0.516760000000    -0.473173   
O61      O      0.061800000000     0.607370000000     0.615430000000    -0.430679   
O62      O      0.002630000000     0.459290000000     0.588100000000    -0.461082   
O63      O      0.146110000000     0.657520000000     0.511870000000    -0.435936   
O64      O      0.135340000000     0.629660000000     0.573210000000    -0.41106    
O65      O      0.076130000000     0.487220000000     0.567660000000    -0.443952   
O66      O      0.120650000000     0.585770000000     0.460870000000    -0.396534   
O67      O      0.999190000000     0.532630000000     0.617790000000    -0.484692   
O68      O      0.047070000000     0.553950000000     0.538000000000    -0.562667   
O69      O      0.446380000000     0.013040000000     0.070720000000    -0.445464   
O70      O      0.533370000000     0.942780000000     0.995810000000    -0.460899   
O71      O      0.525770000000     0.074900000000     0.972220000000    -0.364931   
O72      O      0.451890000000     0.907650000000     0.086190000000    -0.466841   
O73      O      0.564370000000     0.034410000000     0.976550000000    -0.523383   
O74      O      0.444400000000     0.954820000000     0.127630000000    -0.426151   
O75      O      0.518270000000     0.901440000000     0.052970000000    -0.470899   
O76      O      0.461310000000     0.995760000000     0.010710000000    -0.414504   
O77      O      0.543090000000     0.027960000000     0.153180000000    -0.436829   
O78      O      0.632980000000     0.059780000000     0.040500000000    -0.470765   
O79      O      0.508700000000     0.088900000000     0.041990000000    -0.376947   
O80      O      0.584220000000     0.956610000000     0.115000000000    -0.458951   
O81      O      0.610490000000     0.971940000000     0.053340000000    -0.466631   
O82      O      0.541350000000     0.091070000000     0.101830000000    -0.417916   
O83      O      0.515060000000     0.950130000000     0.154340000000    -0.464233   
O84      O      0.593990000000     0.099340000000     0.032980000000    -0.422733   
O85      O      0.532900000000     0.001630000000     0.069220000000    -0.546116   
O86      O      0.459690000000     0.083930000000     0.578940000000    -0.464487   
O87      O      0.609590000000     0.025030000000     0.495250000000    -0.373151   
O88      O      0.516940000000     0.074660000000     0.461010000000    -0.490211   
O89      O      0.480690000000     0.975310000000     0.572800000000    -0.432938   
O90      O      0.519320000000     0.012930000000     0.488060000000    -0.425715   
O91      O      0.470030000000     0.017890000000     0.618140000000    -0.414764   
O92      O      0.552620000000     0.976110000000     0.536390000000    -0.455173   
O93      O      0.454820000000     0.064870000000     0.514230000000    -0.468958   
O94      O      0.573370000000     0.097150000000     0.634750000000    -0.451925   
O95      O      0.608500000000     0.106450000000     0.479930000000    -0.393093   
O96      O      0.520740000000     0.157180000000     0.538580000000    -0.486738   
O97      O      0.616770000000     0.037930000000     0.593850000000    -0.4258     
O98      O      0.638070000000     0.096720000000     0.550340000000    -0.436445   
O99      O      0.555390000000     0.159640000000     0.598120000000    -0.419359   
O100     O      0.544630000000     0.019890000000     0.639320000000    -0.421818   
O101     O      0.587170000000     0.158940000000     0.495790000000    -0.453103   
O102     O      0.544360000000     0.075480000000     0.552870000000    -0.550576   
O103     O      0.467040000000     0.433530000000     0.995810000000    -0.404752   
O104     O      0.524820000000     0.604520000000     0.008840000000    -0.460338   
O105     O      0.463040000000     0.499600000000     0.025550000000    -0.398161   
O106     O      0.602430000000     0.570580000000     0.942810000000    -0.423966   
O107     O      0.479940000000     0.548630000000     0.073900000000    -0.446615   
O108     O      0.525650000000     0.513040000000     0.941940000000    -0.418605   
O109     O      0.597050000000     0.636710000000     0.982300000000    -0.420703   
O110     O      0.466750000000     0.424230000000     0.063870000000    -0.441053   
O111     O      0.607910000000     0.498980000000     0.965830000000    -0.38501    
O112     O      0.570060000000     0.577650000000     0.109890000000    -0.436706   
O113     O      0.559840000000     0.462800000000     0.076350000000    -0.40147    
O114     O      0.651670000000     0.618420000000     0.050780000000    -0.447224   
O115     O      0.607750000000     0.650000000000     0.056430000000    -0.455323   
O116     O      0.552570000000     0.434840000000     0.016500000000    -0.466772   
O117     O      0.651810000000     0.553850000000     0.011470000000    -0.45277    
O118     O      0.514920000000     0.500230000000     0.107410000000    -0.395409   
O119     O      0.562300000000     0.540090000000     0.027450000000    -0.572564   
O120     O      0.495710000000     0.479590000000     0.489530000000    -0.421578   
O121     O      0.515840000000     0.639500000000     0.485240000000    -0.41663    
O122     O      0.454340000000     0.583110000000     0.537170000000    -0.472589   
O123     O      0.580600000000     0.603950000000     0.439040000000    -0.478001   
O124     O      0.500680000000     0.657670000000     0.560410000000    -0.374363   
O125     O      0.578860000000     0.535200000000     0.455870000000    -0.429774   
O126     O      0.591870000000     0.679800000000     0.473280000000    -0.486978   
O127     O      0.455280000000     0.518370000000     0.487820000000    -0.425043   
O128     O      0.627520000000     0.556570000000     0.538110000000    -0.435824   
O129     O      0.550220000000     0.618340000000     0.599030000000    -0.418888   
O130     O      0.472280000000     0.470860000000     0.558170000000    -0.402049   
O131     O      0.648110000000     0.670020000000     0.535310000000    -0.445717   
O132     O      0.593380000000     0.689490000000     0.548280000000    -0.394089   
O133     O      0.548920000000     0.506440000000     0.570720000000    -0.42975    
O134     O      0.653170000000     0.608080000000     0.488350000000    -0.490871   
O135     O      0.488400000000     0.545130000000     0.600750000000    -0.447294   
O136     O      0.553440000000     0.582110000000     0.522800000000    -0.54504    


