data_structure

_audit_creation_method RASPA-1.0
_audit_creation_date 2023-5-9
_audit_author_name 'Poobodin Mano'

_cell_length_a    42.7639
_cell_length_b    39.3151
_cell_length_c    42.7573
_cell_angle_alpha 90
_cell_angle_beta  90
_cell_angle_gamma 90
_cell_volume      71886.4

_symmetry_cell_setting          triclinic
_symmetry_space_group_name_Hall 'P 1'
_symmetry_space_group_name_H-M  'P 1'
_symmetry_Int_Tables_number     1

_symmetry_equiv_pos_as_xyz 'x,y,z'

loop_
_atom_site_label
_atom_site_type_symbol
_atom_site_fract_x
_atom_site_fract_y
_atom_site_fract_z
_atom_site_charge
C1       C      0.559620000000     0.180030000000     0.265010000000     0.409407   
C2       C      0.102550000000     0.569650000000     0.384420000000     0.40795    
C3       C      0.536630000000     0.149690000000     0.387110000000     0.411132   
C4       C      0.125790000000     0.594000000000     0.259260000000     0.410391   
C5       C      0.063860000000     0.530790000000     0.262720000000     0.407054   
C6       C      0.476070000000     0.104390000000     0.343840000000     0.403439   
C7       C      0.492420000000     0.130100000000     0.260800000000     0.403061   
C8       C      0.056370000000     0.512370000000     0.346190000000     0.404519   
C9       C      0.507440000000     0.269090000000     0.087740000000     0.409959   
C10      C      0.073410000000     0.410850000000     0.493740000000     0.409137   
C11      C      0.476720000000     0.391300000000     0.036880000000     0.409628   
C12      C      0.082700000000     0.283660000000     0.516500000000     0.410843   
C13      C      0.133780000000     0.314820000000     0.577190000000     0.407252   
C14      C      0.504850000000     0.412750000000     0.111890000000     0.404158   
C15      C      0.538480000000     0.320960000000     0.141720000000     0.40124    
C16      C      0.108250000000     0.418330000000     0.571800000000     0.404893   
C17      C      0.374390000000     0.127470000000     0.096050000000     0.409063   
C18      C      0.266060000000     0.534830000000     0.526880000000     0.412471   
C19      C      0.240820000000     0.107280000000     0.090860000000     0.412311   
C20      C      0.390530000000     0.571660000000     0.526630000000     0.411717   
C21      C      0.352050000000     0.619030000000     0.462820000000     0.412603   
C22      C      0.259940000000     0.181120000000     0.053260000000     0.407885   
C23      C      0.341150000000     0.197250000000     0.068980000000     0.408645   
C24      C      0.274100000000     0.584400000000     0.461530000000     0.410167   
C25      C      0.436320000000     0.460640000000     0.531680000000    -0.0784922  
C26      C      0.431930000000     0.496660000000     0.018320000000    -0.0832251  
C27      C      0.420520000000     0.520900000000     0.544030000000     0.0100421  
C28      C      0.447480000000     0.435170000000     0.006890000000     0.0029885  
C29      C      0.403560000000     0.235610000000     0.090270000000    -0.075462   
C30      C      0.436470000000     0.244380000000     0.078670000000    -0.0812125  
C31      C      0.460410000000     0.237070000000     0.104520000000     0.0145745  
C32      C      0.377960000000     0.245490000000     0.066890000000     0.007607   
C33      C      0.172090000000     0.470270000000     0.560270000000    -0.0774452  
C34      C      0.207320000000     0.471410000000     0.553970000000    -0.0814838  
C35      C      0.216420000000     0.504340000000     0.537090000000     0.00822961 
C36      C      0.162930000000     0.438720000000     0.579150000000     0.00727866 
C37      C      0.194490000000     0.266960000000     0.554100000000    -0.0759348  
C38      C      0.222010000000     0.264320000000     0.031120000000    -0.0799054  
C39      C      0.231560000000     0.227120000000     0.025480000000     0.00800467 
C40      C      0.189790000000     0.303390000000     0.565990000000     0.00684439 
C41      C      0.394460000000     0.595910000000     0.399170000000    -0.0769235  
C42      C      0.397480000000     0.072170000000     0.369430000000    -0.0784139  
C43      C      0.431590000000     0.067640000000     0.359160000000     0.00687281 
C44      C      0.360760000000     0.102190000000     0.406950000000     0.00831487 
C45      C      0.208300000000     0.566660000000     0.420730000000    -0.0780834  
C46      C      0.175560000000     0.580560000000     0.413360000000    -0.0790377  
C47      C      0.151830000000     0.551500000000     0.410650000000     0.00994434 
C48      C      0.233050000000     0.594810000000     0.421320000000     0.008209   
C49      C      0.184500000000     0.104520000000     0.158170000000    -0.080015   
C50      C      0.184890000000     0.600900000000     0.194040000000    -0.0809422  
C51      C      0.152080000000     0.605290000000     0.208390000000     0.00766062 
C52      C      0.217400000000     0.100560000000     0.143930000000     0.0068938  
C53      C      0.428680000000     0.124250000000     0.200050000000    -0.0813567  
C54      C      0.427430000000     0.114720000000     0.165310000000    -0.079473   
C55      C      0.395520000000     0.122610000000     0.150260000000     0.0069615  
C56      C      0.461150000000     0.116510000000     0.213800000000     0.00774406 
C57      C      0.543230000000     0.177060000000     0.471380000000    -0.0801038  
C58      C      0.064710000000     0.205780000000     0.469390000000    -0.0778179  
C59      C      0.570620000000     0.225260000000     0.499300000000     0.00653049 
C60      C      0.039510000000     0.153230000000     0.444890000000     0.00826138 
C61      C      0.051550000000     0.448910000000     0.418170000000    -0.077499   
C62      C      0.026020000000     0.471860000000     0.404390000000    -0.0768624  
C63      C      0.522900000000     0.465050000000     0.367390000000     0.0108191  
C64      C      0.053400000000     0.451720000000     0.453940000000     0.00636835 
C65      C      0.506940000000     0.468490000000     0.181050000000    -0.079668   
C66      C      0.034090000000     0.488820000000     0.196990000000    -0.0779343  
C67      C      0.528500000000     0.492020000000     0.231540000000     0.00978964 
C68      C      0.012090000000     0.464370000000     0.146310000000     0.00380402 
C69      C      0.558950000000     0.264290000000     0.196140000000    -0.0754336  
C70      C      0.588670000000     0.246320000000     0.207970000000    -0.0795706  
C71      C      0.582190000000     0.209790000000     0.219110000000     0.00782136 
C72      C      0.564750000000     0.302390000000     0.190670000000     0.00805737 
C73      C      0.559630000000     0.180050000000     0.765020000000     0.409546   
C74      C      0.102540000000     0.569660000000     0.884430000000     0.407737   
C75      C      0.536660000000     0.149710000000     0.887110000000     0.410944   
C76      C      0.125790000000     0.594020000000     0.759270000000     0.410414   
C77      C      0.063860000000     0.530820000000     0.762720000000     0.406983   
C78      C      0.476070000000     0.104440000000     0.843840000000     0.403734   
C79      C      0.492430000000     0.130140000000     0.760810000000     0.403141   
C80      C      0.056360000000     0.512390000000     0.846180000000     0.404393   
C81      C      0.507400000000     0.269090000000     0.587770000000     0.41006    
C82      C      0.073410000000     0.410850000000     0.993730000000     0.412152   
C83      C      0.476700000000     0.391310000000     0.536890000000     0.410059   
C84      C      0.082760000000     0.283660000000     0.016490000000     0.408864   
C85      C      0.133810000000     0.314860000000     0.077190000000     0.407315   
C86      C      0.504840000000     0.412760000000     0.611890000000     0.404104   
C87      C      0.538470000000     0.320970000000     0.641730000000     0.401078   
C88      C      0.108260000000     0.418350000000     0.071790000000     0.40481    
C89      C      0.374390000000     0.127510000000     0.596050000000     0.409042   
C90      C      0.266060000000     0.534850000000     0.026850000000     0.412021   
C91      C      0.240820000000     0.107270000000     0.590880000000     0.412061   
C92      C      0.390530000000     0.571660000000     0.026580000000     0.411395   
C93      C      0.352040000000     0.619080000000     0.962810000000     0.412348   
C94      C      0.259930000000     0.181110000000     0.553260000000     0.407873   
C95      C      0.341130000000     0.197260000000     0.568950000000     0.408935   
C96      C      0.274090000000     0.584430000000     0.961510000000     0.410056   
C97      C      0.436330000000     0.460640000000     0.031660000000    -0.0756783  
C98      C      0.431920000000     0.496660000000     0.518360000000    -0.0788794  
C99      C      0.420520000000     0.520900000000     0.043980000000     0.0111083  
C100     C      0.447470000000     0.435180000000     0.506910000000     0.00997902 
C101     C      0.403520000000     0.235640000000     0.590270000000    -0.0753687  
C102     C      0.436430000000     0.244400000000     0.578690000000    -0.0812813  
C103     C      0.460360000000     0.237090000000     0.604550000000     0.0145839  
C104     C      0.377930000000     0.245510000000     0.566870000000     0.00754224 
C105     C      0.172090000000     0.470290000000     0.060240000000    -0.077416   
C106     C      0.207320000000     0.471430000000     0.053940000000    -0.0814789  
C107     C      0.216410000000     0.504350000000     0.037050000000     0.00813242 
C108     C      0.162940000000     0.438750000000     0.079140000000     0.00721382 
C109     C      0.194510000000     0.266990000000     0.054120000000    -0.0759234  
C110     C      0.222000000000     0.264300000000     0.531110000000    -0.0798039  
C111     C      0.231560000000     0.227100000000     0.525470000000     0.00792982 
C112     C      0.189820000000     0.303430000000     0.066000000000     0.00685672 
C113     C      0.394440000000     0.595970000000     0.899160000000    -0.0769521  
C114     C      0.397460000000     0.072240000000     0.869420000000    -0.0784214  
C115     C      0.431580000000     0.067700000000     0.859150000000     0.00692378 
C116     C      0.360740000000     0.102270000000     0.906930000000     0.00834938 
C117     C      0.208280000000     0.566690000000     0.920730000000    -0.0781367  
C118     C      0.175540000000     0.580580000000     0.913370000000    -0.0789732  
C119     C      0.151810000000     0.551510000000     0.910660000000     0.0099642  
C120     C      0.233030000000     0.594840000000     0.921320000000     0.00834158 
C121     C      0.184510000000     0.104530000000     0.658180000000    -0.0800456  
C122     C      0.184900000000     0.600910000000     0.694060000000    -0.0810091  
C123     C      0.152090000000     0.605300000000     0.708400000000     0.00764    
C124     C      0.217400000000     0.100560000000     0.643950000000     0.00689879 
C125     C      0.428690000000     0.124300000000     0.700050000000    -0.0813283  
C126     C      0.427430000000     0.114770000000     0.665310000000    -0.0794343  
C127     C      0.395520000000     0.122670000000     0.650260000000     0.00698929 
C128     C      0.461160000000     0.116560000000     0.713800000000     0.00770968 
C129     C      0.543310000000     0.177070000000     0.971380000000    -0.0792971  
C130     C      0.064780000000     0.205790000000     0.969390000000    -0.0795641  
C131     C      0.570710000000     0.225260000000     0.999300000000     0.0129271  
C132     C      0.039560000000     0.153240000000     0.944900000000     0.00806973 
C133     C      0.051540000000     0.448920000000     0.918160000000    -0.0775184  
C134     C      0.026000000000     0.471880000000     0.904380000000    -0.0769465  
C135     C      0.522880000000     0.465070000000     0.867390000000     0.010819   
C136     C      0.053390000000     0.451720000000     0.953930000000     0.00661622 
C137     C      0.506940000000     0.468510000000     0.681040000000    -0.0796245  
C138     C      0.034090000000     0.488850000000     0.696990000000    -0.0779983  
C139     C      0.528500000000     0.492060000000     0.731520000000     0.00980467 
C140     C      0.012090000000     0.464390000000     0.646310000000     0.00384728 
C141     C      0.558950000000     0.264310000000     0.696140000000    -0.0754547  
C142     C      0.588670000000     0.246350000000     0.707970000000    -0.0796081  
C143     C      0.582190000000     0.209810000000     0.719120000000     0.00785642 
C144     C      0.564750000000     0.302410000000     0.690670000000     0.00805802 
C145     C      0.559480000000     0.679580000000     0.264980000000     0.409559   
C146     C      0.102560000000     0.070160000000     0.384330000000     0.407638   
C147     C      0.537470000000     0.649460000000     0.387130000000     0.410894   
C148     C      0.125850000000     0.094180000000     0.259170000000     0.410339   
C149     C      0.063820000000     0.031050000000     0.262690000000     0.406996   
C150     C      0.476180000000     0.604470000000     0.344670000000     0.403791   
C151     C      0.492300000000     0.629510000000     0.261070000000     0.403097   
C152     C      0.056530000000     0.012650000000     0.346270000000     0.404377   
C153     C      0.507660000000     0.769090000000     0.087810000000     0.409886   
C154     C      0.073470000000     0.910970000000     0.493920000000     0.40922    
C155     C      0.476740000000     0.891170000000     0.037090000000     0.409718   
C156     C      0.082990000000     0.783790000000     0.516610000000     0.410881   
C157     C      0.133900000000     0.814920000000     0.577320000000     0.407471   
C158     C      0.504920000000     0.912750000000     0.112110000000     0.40439    
C159     C      0.538690000000     0.820840000000     0.141850000000     0.401322   
C160     C      0.108130000000     0.918500000000     0.572040000000     0.405152   
C161     C      0.374410000000     0.627310000000     0.096240000000     0.40936    
C162     C      0.265860000000     0.034740000000     0.526770000000     0.412333   
C163     C      0.240830000000     0.607420000000     0.090990000000     0.412358   
C164     C      0.390400000000     0.071400000000     0.526810000000     0.411813   
C165     C      0.352550000000     0.118290000000     0.462730000000     0.412683   
C166     C      0.260070000000     0.681240000000     0.053400000000     0.408029   
C167     C      0.341310000000     0.697280000000     0.069380000000     0.40905    
C168     C      0.274140000000     0.084310000000     0.461400000000     0.410325   
C169     C      0.436160000000     0.960370000000     0.531910000000    -0.0784156  
C170     C      0.431750000000     0.996390000000     0.018580000000    -0.0832635  
C171     C      0.420290000000     0.020600000000     0.544290000000     0.0101166  
C172     C      0.447360000000     0.934930000000     0.007120000000     0.00296872 
C173     C      0.403810000000     0.735550000000     0.090600000000    -0.0754017  
C174     C      0.436670000000     0.744390000000     0.078930000000    -0.0812076  
C175     C      0.460700000000     0.736990000000     0.104670000000     0.014563   
C176     C      0.378120000000     0.745530000000     0.067350000000     0.00757178 
C177     C      0.171860000000     0.970360000000     0.560350000000    -0.0774763  
C178     C      0.207100000000     0.971530000000     0.554100000000    -0.0814105  
C179     C      0.216160000000     0.004300000000     0.536940000000     0.00812862 
C180     C      0.162760000000     0.939000000000     0.579510000000     0.00738162 
C181     C      0.194640000000     0.767080000000     0.554220000000    -0.0759982  
C182     C      0.222160000000     0.764440000000     0.031250000000    -0.0797561  
C183     C      0.231720000000     0.727250000000     0.025600000000     0.00795248 
C184     C      0.189900000000     0.803510000000     0.566090000000     0.00696093 
C185     C      0.394890000000     0.095450000000     0.398150000000    -0.0768353  
C186     C      0.397440000000     0.572620000000     0.370490000000    -0.0784019  
C187     C      0.431690000000     0.568090000000     0.360650000000     0.00695913 
C188     C      0.360210000000     0.603360000000     0.406960000000     0.00861273 
C189     C      0.208310000000     0.066840000000     0.420660000000    -0.0781458  
C190     C      0.175640000000     0.080890000000     0.413230000000    -0.0789383  
C191     C      0.151770000000     0.051950000000     0.410650000000     0.00991014 
C192     C      0.233210000000     0.094840000000     0.421090000000     0.00828137 
C193     C      0.184450000000     0.604560000000     0.158270000000    -0.0800593  
C194     C      0.184940000000     0.100900000000     0.193940000000    -0.0810169  
C195     C      0.152150000000     0.105390000000     0.208290000000     0.00768847 
C196     C      0.217370000000     0.600700000000     0.144040000000     0.00689944 
C197     C      0.428560000000     0.623770000000     0.200300000000    -0.0813466  
C198     C      0.427360000000     0.614330000000     0.165540000000    -0.0794435  
C199     C      0.395480000000     0.622290000000     0.150450000000     0.00694956 
C200     C      0.461000000000     0.615920000000     0.214090000000     0.00771883 
C201     C      0.544710000000     0.676930000000     0.471320000000    -0.0801594  
C202     C      0.065340000000     0.705850000000     0.469460000000    -0.0778134  
C203     C      0.571510000000     0.725460000000     0.499290000000     0.00646798 
C204     C      0.040410000000     0.653150000000     0.444950000000     0.00841272 
C205     C      0.051740000000     0.949120000000     0.418350000000    -0.0775062  
C206     C      0.026240000000     0.972110000000     0.404540000000    -0.0768374  
C207     C      0.523270000000     0.965380000000     0.367600000000     0.0108304  
C208     C      0.053510000000     0.951880000000     0.454120000000     0.00634093 
C209     C      0.506910000000     0.968660000000     0.181190000000    -0.079678   
C210     C      0.034010000000     0.988980000000     0.197020000000    -0.0779555  
C211     C      0.528430000000     0.992430000000     0.231610000000     0.00978021 
C212     C      0.012010000000     0.964390000000     0.146380000000     0.00388615 
C213     C      0.558990000000     0.763940000000     0.196140000000    -0.0754523  
C214     C      0.588640000000     0.745820000000     0.207950000000    -0.0796551  
C215     C      0.582020000000     0.709300000000     0.219050000000     0.00789491 
C216     C      0.564940000000     0.802020000000     0.190730000000     0.0080728  
C217     C      0.559490000000     0.679610000000     0.764990000000     0.40943    
C218     C      0.102550000000     0.070180000000     0.884340000000     0.407857   
C219     C      0.537510000000     0.649480000000     0.887140000000     0.410946   
C220     C      0.125850000000     0.094210000000     0.759180000000     0.410569   
C221     C      0.063820000000     0.031080000000     0.762690000000     0.406981   
C222     C      0.476180000000     0.604510000000     0.844680000000     0.403874   
C223     C      0.492310000000     0.629540000000     0.761080000000     0.403222   
C224     C      0.056510000000     0.012670000000     0.846260000000     0.40437    
C225     C      0.507620000000     0.769090000000     0.587840000000     0.409817   
C226     C      0.073470000000     0.910970000000     0.993910000000     0.412215   
C227     C      0.476720000000     0.891170000000     0.537090000000     0.410142   
C228     C      0.083050000000     0.783790000000     0.016610000000     0.408726   
C229     C      0.133930000000     0.814960000000     0.077320000000     0.407382   
C230     C      0.504910000000     0.912760000000     0.612110000000     0.404165   
C231     C      0.538680000000     0.820850000000     0.641870000000     0.401107   
C232     C      0.108140000000     0.918520000000     0.072020000000     0.404831   
C233     C      0.374410000000     0.627350000000     0.596240000000     0.409179   
C234     C      0.265850000000     0.034760000000     0.026740000000     0.412266   
C235     C      0.240840000000     0.607410000000     0.591000000000     0.412213   
C236     C      0.390400000000     0.071400000000     0.026770000000     0.411423   
C237     C      0.352540000000     0.118340000000     0.962720000000     0.412786   
C238     C      0.260060000000     0.681220000000     0.553400000000     0.408062   
C239     C      0.341290000000     0.697290000000     0.569350000000     0.408924   
C240     C      0.274120000000     0.084340000000     0.961380000000     0.410003   
C241     C      0.436170000000     0.960370000000     0.031890000000    -0.0755787  
C242     C      0.431740000000     0.996390000000     0.518620000000    -0.0789895  
C243     C      0.420290000000     0.020600000000     0.044250000000     0.0111521  
C244     C      0.447340000000     0.934940000000     0.507130000000     0.00998447 
C245     C      0.403770000000     0.735580000000     0.590600000000    -0.0752605  
C246     C      0.436630000000     0.744410000000     0.578950000000    -0.0812629  
C247     C      0.460660000000     0.737020000000     0.604700000000     0.014652   
C248     C      0.378100000000     0.745550000000     0.567330000000     0.00745435 
C249     C      0.171860000000     0.970380000000     0.060330000000    -0.0773099  
C250     C      0.207100000000     0.971550000000     0.054070000000    -0.0815342  
C251     C      0.216160000000     0.004310000000     0.036890000000     0.00817099 
C252     C      0.162770000000     0.939030000000     0.079500000000     0.00718826 
C253     C      0.194660000000     0.767110000000     0.054240000000    -0.0760109  
C254     C      0.222150000000     0.764420000000     0.531230000000    -0.0798103  
C255     C      0.231720000000     0.727230000000     0.525590000000     0.00799996 
C256     C      0.189930000000     0.803550000000     0.066100000000     0.00693228 
C257     C      0.394870000000     0.095510000000     0.898150000000    -0.0768196  
C258     C      0.397430000000     0.572690000000     0.870480000000    -0.0783677  
C259     C      0.431680000000     0.568150000000     0.860650000000     0.00693087 
C260     C      0.360200000000     0.603430000000     0.906940000000     0.00867932 
C261     C      0.208300000000     0.066870000000     0.920660000000    -0.0781651  
C262     C      0.175620000000     0.080920000000     0.913230000000    -0.0790055  
C263     C      0.151750000000     0.051960000000     0.910660000000     0.00991249 
C264     C      0.233190000000     0.094880000000     0.921090000000     0.00835932 
C265     C      0.184460000000     0.604560000000     0.658280000000    -0.0800908  
C266     C      0.184950000000     0.100910000000     0.693960000000    -0.0810557  
C267     C      0.152150000000     0.105410000000     0.708300000000     0.00759821 
C268     C      0.217370000000     0.600700000000     0.644060000000     0.006867   
C269     C      0.428570000000     0.623820000000     0.700300000000    -0.0813382  
C270     C      0.427370000000     0.614390000000     0.665540000000    -0.0793817  
C271     C      0.395490000000     0.622340000000     0.650460000000     0.00684779 
C272     C      0.461000000000     0.615970000000     0.714100000000     0.0077547  
C273     C      0.544790000000     0.676940000000     0.971320000000    -0.0793537  
C274     C      0.065410000000     0.705850000000     0.969460000000    -0.079533   
C275     C      0.571600000000     0.725470000000     0.999290000000     0.0129643  
C276     C      0.040460000000     0.653160000000     0.944960000000     0.00814854 
C277     C      0.051720000000     0.949130000000     0.918330000000    -0.0775201  
C278     C      0.026220000000     0.972120000000     0.904540000000    -0.076898   
C279     C      0.523260000000     0.965400000000     0.867600000000     0.0108647  
C280     C      0.053500000000     0.951880000000     0.954110000000     0.00655497 
C281     C      0.506910000000     0.968690000000     0.681180000000    -0.0796402  
C282     C      0.034010000000     0.989010000000     0.697010000000    -0.0780052  
C283     C      0.528430000000     0.992460000000     0.731600000000     0.00975367 
C284     C      0.012010000000     0.964410000000     0.646380000000     0.00390375 
C285     C      0.558990000000     0.763960000000     0.696140000000    -0.0753977  
C286     C      0.588640000000     0.745840000000     0.707950000000    -0.079622   
C287     C      0.582020000000     0.709320000000     0.719050000000     0.00782482 
C288     C      0.564940000000     0.802040000000     0.690740000000     0.00798452 
C289     C      0.059610000000     0.182050000000     0.265990000000     0.409155   
C290     C      0.603170000000     0.567090000000     0.383790000000     0.408004   
C291     C      0.034020000000     0.151250000000     0.387640000000     0.410254   
C292     C      0.626150000000     0.592430000000     0.258660000000     0.410579   
C293     C      0.564810000000     0.528690000000     0.261920000000     0.407      
C294     C      0.975330000000     0.105320000000     0.343290000000     0.402846   
C295     C      0.992310000000     0.132210000000     0.260660000000     0.408448   
C296     C      0.556670000000     0.510370000000     0.345290000000     0.404487   
C297     C      0.006930000000     0.270030000000     0.089330000000     0.400072   
C298     C      0.573330000000     0.410090000000     0.492940000000     0.409143   
C299     C      0.976530000000     0.392030000000     0.037600000000     0.414775   
C300     C      0.584580000000     0.283150000000     0.516040000000     0.410516   
C301     C      0.634210000000     0.314990000000     0.577070000000     0.40732    
C302     C      0.004720000000     0.413860000000     0.112480000000     0.394485   
C303     C      0.038550000000     0.322400000000     0.142650000000     0.401114   
C304     C      0.608260000000     0.418370000000     0.571010000000     0.405014   
C305     C      0.874600000000     0.128210000000     0.095550000000     0.409086   
C306     C      0.766360000000     0.535200000000     0.526890000000     0.412446   
C307     C      0.741000000000     0.107340000000     0.090320000000     0.412382   
C308     C      0.890870000000     0.572440000000     0.526360000000     0.411736   
C309     C      0.852070000000     0.619230000000     0.462370000000     0.412647   
C310     C      0.759990000000     0.181380000000     0.052970000000     0.408011   
C311     C      0.841040000000     0.197730000000     0.068670000000     0.408978   
C312     C      0.774410000000     0.584050000000     0.461230000000     0.410593   
C313     C      0.936530000000     0.461540000000     0.532050000000    -0.0784853  
C314     C      0.932130000000     0.497440000000     0.018460000000    -0.0830887  
C315     C      0.921060000000     0.521970000000     0.544100000000     0.0101231  
C316     C      0.947430000000     0.435810000000     0.007380000000     0.00351195 
C317     C      0.903030000000     0.236540000000     0.090890000000    -0.0754979  
C318     C      0.936090000000     0.245250000000     0.079720000000    -0.0808886  
C319     C      0.959660000000     0.238350000000     0.106010000000     0.0138751  
C320     C      0.877780000000     0.246040000000     0.067000000000     0.00747157 
C321     C      0.672180000000     0.470660000000     0.559860000000    -0.0774346  
C322     C      0.707460000000     0.471760000000     0.553790000000    -0.0815627  
C323     C      0.716710000000     0.504750000000     0.537090000000     0.00823471 
C324     C      0.662850000000     0.439030000000     0.578530000000     0.00722241 
C325     C      0.694720000000     0.267440000000     0.553980000000    -0.076008   
C326     C      0.722300000000     0.264770000000     0.031060000000    -0.0798499  
C327     C      0.731710000000     0.227550000000     0.025310000000     0.0080174  
C328     C      0.690290000000     0.303780000000     0.566220000000     0.0069895  
C329     C      0.894120000000     0.596080000000     0.398320000000    -0.0770115  
C330     C      0.896990000000     0.072410000000     0.368640000000    -0.078166   
C331     C      0.931030000000     0.068020000000     0.358060000000     0.00676055 
C332     C      0.860530000000     0.102190000000     0.406560000000     0.00842515 
C333     C      0.708890000000     0.565130000000     0.420110000000    -0.0781952  
C334     C      0.675990000000     0.578590000000     0.412750000000    -0.0790188  
C335     C      0.652630000000     0.549190000000     0.409830000000     0.00998028 
C336     C      0.733270000000     0.593660000000     0.420940000000     0.0081662  
C337     C      0.684710000000     0.103950000000     0.157630000000    -0.0801192  
C338     C      0.685160000000     0.600030000000     0.193450000000    -0.0810265  
C339     C      0.652340000000     0.604130000000     0.207820000000     0.00765733 
C340     C      0.717620000000     0.100240000000     0.143360000000     0.0069343  
C341     C      0.928940000000     0.125940000000     0.199540000000    -0.081141   
C342     C      0.927850000000     0.116400000000     0.164800000000    -0.0796038  
C343     C      0.895810000000     0.123640000000     0.149750000000     0.00706875 
C344     C      0.961540000000     0.118790000000     0.213280000000     0.00787981 
C345     C      0.039020000000     0.178560000000     0.472100000000    -0.0796223  
C346     C      0.568460000000     0.204800000000     0.468850000000    -0.0774713  
C347     C      0.067650000000     0.226050000000     0.499900000000     0.00681627 
C348     C      0.544190000000     0.151820000000     0.444100000000     0.00878353 
C349     C      0.551250000000     0.447300000000     0.417040000000    -0.077244   
C350     C      0.525570000000     0.469860000000     0.402980000000    -0.0766896  
C351     C      0.022940000000     0.467130000000     0.368840000000     0.01124    
C352     C      0.552830000000     0.450290000000     0.452810000000     0.006235   
C353     C      0.006600000000     0.470310000000     0.181390000000    -0.0847595  
C354     C      0.534430000000     0.487210000000     0.196460000000    -0.0791752  
C355     C      0.027540000000     0.494570000000     0.231820000000     0.00919118 
C356     C      0.511700000000     0.463410000000     0.145730000000     0.00612556 
C357     C      0.059430000000     0.266340000000     0.197350000000    -0.0754054  
C358     C      0.089150000000     0.248600000000     0.209460000000    -0.0795922  
C359     C      0.082800000000     0.212020000000     0.220530000000     0.00775057 
C360     C      0.065150000000     0.304400000000     0.191600000000     0.00793825 
C361     C      0.059620000000     0.182080000000     0.766000000000     0.409134   
C362     C      0.603160000000     0.567100000000     0.883790000000     0.407969   
C363     C      0.034050000000     0.151270000000     0.887650000000     0.410378   
C364     C      0.626160000000     0.592440000000     0.758670000000     0.410568   
C365     C      0.564810000000     0.528720000000     0.761920000000     0.407048   
C366     C      0.975330000000     0.105370000000     0.843300000000     0.402791   
C367     C      0.992320000000     0.132250000000     0.760660000000     0.40834    
C368     C      0.556660000000     0.510380000000     0.845290000000     0.404628   
C369     C      0.006890000000     0.270040000000     0.589370000000     0.400159   
C370     C      0.573330000000     0.410100000000     0.992930000000     0.41213    
C371     C      0.976520000000     0.392040000000     0.537600000000     0.415126   
C372     C      0.584630000000     0.283170000000     0.016040000000     0.408805   
C373     C      0.634240000000     0.315030000000     0.077080000000     0.407281   
C374     C      0.004710000000     0.413880000000     0.612490000000     0.394293   
C375     C      0.038540000000     0.322420000000     0.642660000000     0.401118   
C376     C      0.608270000000     0.418390000000     0.071010000000     0.404922   
C377     C      0.874600000000     0.128260000000     0.595550000000     0.409268   
C378     C      0.766350000000     0.535210000000     0.026860000000     0.411595   
C379     C      0.741010000000     0.107330000000     0.590330000000     0.412317   
C380     C      0.890860000000     0.572440000000     0.026320000000     0.411617   
C381     C      0.852060000000     0.619270000000     0.962360000000     0.412404   
C382     C      0.759980000000     0.181370000000     0.552970000000     0.408457   
C383     C      0.841020000000     0.197740000000     0.568650000000     0.408976   
C384     C      0.774400000000     0.584070000000     0.961210000000     0.410446   
C385     C      0.936530000000     0.461530000000     0.032030000000    -0.0757281  
C386     C      0.932120000000     0.497460000000     0.518500000000    -0.0787996  
C387     C      0.921060000000     0.521970000000     0.044050000000     0.0112032  
C388     C      0.947420000000     0.435830000000     0.507390000000     0.0103683  
C389     C      0.902990000000     0.236580000000     0.590900000000    -0.075382   
C390     C      0.936060000000     0.245280000000     0.579740000000    -0.0809368  
C391     C      0.959610000000     0.238390000000     0.606050000000     0.0138877  
C392     C      0.877760000000     0.246070000000     0.566990000000     0.0073541  
C393     C      0.672170000000     0.470670000000     0.059840000000    -0.0773172  
C394     C      0.707450000000     0.471780000000     0.053770000000    -0.0816749  
C395     C      0.716700000000     0.504750000000     0.037050000000     0.0082763  
C396     C      0.662850000000     0.439060000000     0.078540000000     0.00710609 
C397     C      0.694740000000     0.267470000000     0.053990000000    -0.0759819  
C398     C      0.722290000000     0.264750000000     0.531050000000    -0.0798187  
C399     C      0.731710000000     0.227540000000     0.525300000000     0.00800065 
C400     C      0.690320000000     0.303810000000     0.066220000000     0.00697081 
C401     C      0.894100000000     0.596130000000     0.898320000000    -0.0771583  
C402     C      0.896980000000     0.072470000000     0.868620000000    -0.0780747  
C403     C      0.931020000000     0.068080000000     0.858050000000     0.00674506 
C404     C      0.860510000000     0.102250000000     0.906540000000     0.00845565 
C405     C      0.708870000000     0.565160000000     0.920110000000    -0.0782647  
C406     C      0.675970000000     0.578600000000     0.912750000000    -0.078953   
C407     C      0.652610000000     0.549200000000     0.909840000000     0.00998718 
C408     C      0.733250000000     0.593690000000     0.920930000000     0.00831104 
C409     C      0.684720000000     0.103960000000     0.657640000000    -0.0801148  
C410     C      0.685170000000     0.600030000000     0.693460000000    -0.0810123  
C411     C      0.652350000000     0.604150000000     0.707830000000     0.00763024 
C412     C      0.717630000000     0.100240000000     0.643380000000     0.00693342 
C413     C      0.928950000000     0.126000000000     0.699550000000    -0.0812064  
C414     C      0.927860000000     0.116470000000     0.664810000000    -0.0796327  
C415     C      0.895820000000     0.123700000000     0.649760000000     0.00705557 
C416     C      0.961550000000     0.118850000000     0.713290000000     0.00798393 
C417     C      0.039090000000     0.178570000000     0.972110000000    -0.0788458  
C418     C      0.568530000000     0.204810000000     0.968850000000    -0.0792079  
C419     C      0.067740000000     0.226040000000     0.999910000000     0.0132547  
C420     C      0.544260000000     0.151840000000     0.944090000000     0.00865837 
C421     C      0.551240000000     0.447310000000     0.917030000000    -0.0773686  
C422     C      0.525550000000     0.469880000000     0.902980000000    -0.0766449  
C423     C      0.022920000000     0.467150000000     0.868830000000     0.0112379  
C424     C      0.552820000000     0.450300000000     0.952810000000     0.00647969 
C425     C      0.006590000000     0.470340000000     0.681390000000    -0.0848443  
C426     C      0.534430000000     0.487230000000     0.696450000000    -0.0792819  
C427     C      0.027540000000     0.494610000000     0.731820000000     0.00928556 
C428     C      0.511700000000     0.463430000000     0.645730000000     0.00603298 
C429     C      0.059430000000     0.266370000000     0.697360000000    -0.0753365  
C430     C      0.089160000000     0.248640000000     0.709470000000    -0.0797212  
C431     C      0.082800000000     0.212050000000     0.720540000000     0.0078475  
C432     C      0.065150000000     0.304430000000     0.691610000000     0.00794178 
C433     C      0.059450000000     0.681760000000     0.266050000000     0.40905    
C434     C      0.603140000000     0.067830000000     0.383750000000     0.40796    
C435     C      0.034480000000     0.651080000000     0.387750000000     0.410262   
C436     C      0.626190000000     0.092790000000     0.258620000000     0.410562   
C437     C      0.564780000000     0.029100000000     0.261960000000     0.407181   
C438     C      0.975350000000     0.605410000000     0.344060000000     0.40283    
C439     C      0.992180000000     0.631760000000     0.260900000000     0.408627   
C440     C      0.556910000000     0.010780000000     0.345430000000     0.404492   
C441     C      0.007090000000     0.769970000000     0.089480000000     0.400054   
C442     C      0.573490000000     0.910370000000     0.493210000000     0.40933    
C443     C      0.976500000000     0.891830000000     0.037750000000     0.41483    
C444     C      0.585060000000     0.783440000000     0.516140000000     0.410821   
C445     C      0.634400000000     0.815150000000     0.577240000000     0.407247   
C446     C      0.004710000000     0.913820000000     0.112630000000     0.394322   
C447     C      0.038680000000     0.822320000000     0.142790000000     0.401058   
C448     C      0.608170000000     0.918670000000     0.571380000000     0.404887   
C449     C      0.874620000000     0.628070000000     0.095690000000     0.409342   
C450     C      0.766120000000     0.035150000000     0.526770000000     0.412224   
C451     C      0.741020000000     0.607420000000     0.090410000000     0.412255   
C452     C      0.890720000000     0.072150000000     0.526580000000     0.412032   
C453     C      0.852600000000     0.118520000000     0.462330000000     0.412956   
C454     C      0.760090000000     0.681450000000     0.053090000000     0.40819    
C455     C      0.841160000000     0.697750000000     0.069040000000     0.409044   
C456     C      0.774440000000     0.084040000000     0.461120000000     0.410525   
C457     C      0.936320000000     0.961210000000     0.532270000000    -0.0784775  
C458     C      0.931920000000     0.997130000000     0.018720000000    -0.0831591  
C459     C      0.920790000000     0.021610000000     0.544370000000     0.0101454  
C460     C      0.947260000000     0.935530000000     0.007570000000     0.00346094 
C461     C      0.903220000000     0.736450000000     0.091260000000    -0.0755545  
C462     C      0.936250000000     0.745210000000     0.080030000000    -0.0808316  
C463     C      0.959890000000     0.738240000000     0.106240000000     0.0138555  
C464     C      0.877910000000     0.746060000000     0.067470000000     0.00756674 
C465     C      0.671930000000     0.970830000000     0.560010000000    -0.0773942  
C466     C      0.707210000000     0.971980000000     0.554000000000    -0.0814722  
C467     C      0.716420000000     0.004740000000     0.536910000000     0.00822795 
C468     C      0.662680000000     0.939460000000     0.579080000000     0.00724026 
C469     C      0.694880000000     0.767560000000     0.554100000000    -0.0759726  
C470     C      0.722450000000     0.764870000000     0.031190000000    -0.0798084  
C471     C      0.731840000000     0.727640000000     0.025420000000     0.00799478 
C472     C      0.690460000000     0.803900000000     0.566340000000     0.00690282 
C473     C      0.894590000000     0.095680000000     0.397380000000    -0.0769888  
C474     C      0.896890000000     0.572800000000     0.369620000000    -0.0781639  
C475     C      0.931060000000     0.568420000000     0.359450000000     0.00676935 
C476     C      0.859920000000     0.603290000000     0.406520000000     0.00868648 
C477     C      0.708870000000     0.065490000000     0.420100000000    -0.0781713  
C478     C      0.676050000000     0.079120000000     0.412670000000    -0.0790031  
C479     C      0.652520000000     0.049860000000     0.409910000000     0.00987623 
C480     C      0.733430000000     0.093840000000     0.420730000000     0.00825337 
C481     C      0.684680000000     0.603880000000     0.157690000000    -0.0801314  
C482     C      0.685200000000     0.100170000000     0.193390000000    -0.0810689  
C483     C      0.652390000000     0.104390000000     0.207760000000     0.00769044 
C484     C      0.717600000000     0.600280000000     0.143430000000     0.00694809 
C485     C      0.928850000000     0.625550000000     0.199740000000    -0.0811725  
C486     C      0.927820000000     0.616120000000     0.164970000000    -0.0796551  
C487     C      0.895800000000     0.623350000000     0.149890000000     0.00706162 
C488     C      0.961410000000     0.618360000000     0.213520000000     0.00794514 
C489     C      0.039810000000     0.678450000000     0.472170000000    -0.0796468  
C490     C      0.569610000000     0.705010000000     0.468830000000    -0.0774157  
C491     C      0.068180000000     0.726110000000     0.499990000000     0.00675602 
C492     C      0.545950000000     0.651760000000     0.443990000000     0.00886801 
C493     C      0.551560000000     0.947650000000     0.417290000000    -0.0772445  
C494     C      0.525890000000     0.970200000000     0.403190000000    -0.0767234  
C495     C      0.023170000000     0.967380000000     0.368990000000     0.0111387  
C496     C      0.553040000000     0.950590000000     0.453070000000     0.00618304 
C497     C      0.006510000000     0.970430000000     0.181460000000    -0.0848528  
C498     C      0.534390000000     0.987460000000     0.196560000000    -0.079292   
C499     C      0.027440000000     0.994850000000     0.231830000000     0.00910652 
C500     C      0.511690000000     0.963460000000     0.145890000000     0.00614483 
C501     C      0.059440000000     0.766130000000     0.197430000000    -0.0753644  
C502     C      0.089100000000     0.748290000000     0.209550000000    -0.0796117  
C503     C      0.082640000000     0.711710000000     0.220580000000     0.0077836  
C504     C      0.065260000000     0.804170000000     0.191700000000     0.00802784 
C505     C      0.059460000000     0.681790000000     0.766060000000     0.408945   
C506     C      0.603130000000     0.067840000000     0.883760000000     0.408066   
C507     C      0.034500000000     0.651100000000     0.887760000000     0.410186   
C508     C      0.626200000000     0.092810000000     0.758620000000     0.410367   
C509     C      0.564770000000     0.029130000000     0.761950000000     0.407092   
C510     C      0.975350000000     0.605450000000     0.844060000000     0.402875   
C511     C      0.992180000000     0.631800000000     0.760910000000     0.408397   
C512     C      0.556890000000     0.010790000000     0.845430000000     0.404567   
C513     C      0.007060000000     0.769990000000     0.589520000000     0.399871   
C514     C      0.573490000000     0.910380000000     0.993200000000     0.412189   
C515     C      0.976480000000     0.891840000000     0.537760000000     0.415248   
C516     C      0.585110000000     0.783460000000     0.016140000000     0.409008   
C517     C      0.634420000000     0.815190000000     0.077250000000     0.407186   
C518     C      0.004700000000     0.913830000000     0.612640000000     0.394427   
C519     C      0.038670000000     0.822340000000     0.642800000000     0.401274   
C520     C      0.608170000000     0.918700000000     0.071380000000     0.404703   
C521     C      0.874630000000     0.628110000000     0.595690000000     0.409265   
C522     C      0.766120000000     0.035160000000     0.026740000000     0.411911   
C523     C      0.741020000000     0.607410000000     0.590420000000     0.412256   
C524     C      0.890710000000     0.072150000000     0.026530000000     0.411547   
C525     C      0.852580000000     0.118560000000     0.962320000000     0.412835   
C526     C      0.760090000000     0.681440000000     0.553090000000     0.408308   
C527     C      0.841140000000     0.697760000000     0.569020000000     0.409063   
C528     C      0.774420000000     0.084070000000     0.961100000000     0.410282   
C529     C      0.936330000000     0.961210000000     0.032250000000    -0.0756265  
C530     C      0.931910000000     0.997150000000     0.518760000000    -0.0788353  
C531     C      0.920790000000     0.021610000000     0.044320000000     0.0112362  
C532     C      0.947250000000     0.935550000000     0.507590000000     0.010459   
C533     C      0.903180000000     0.736490000000     0.591260000000    -0.0754223  
C534     C      0.936220000000     0.745240000000     0.580050000000    -0.0808771  
C535     C      0.959840000000     0.738280000000     0.606280000000     0.013869   
C536     C      0.877880000000     0.746090000000     0.567460000000     0.00751294 
C537     C      0.671920000000     0.970850000000     0.059990000000    -0.0772882  
C538     C      0.707210000000     0.972000000000     0.053980000000    -0.0816775  
C539     C      0.716410000000     0.004750000000     0.036860000000     0.00826508 
C540     C      0.662680000000     0.939490000000     0.079080000000     0.00716066 
C541     C      0.694890000000     0.767590000000     0.054120000000    -0.0760172  
C542     C      0.722440000000     0.764860000000     0.531180000000    -0.079781   
C543     C      0.731840000000     0.727640000000     0.525410000000     0.00784794 
C544     C      0.690490000000     0.803940000000     0.066350000000     0.0069368  
C545     C      0.894580000000     0.095730000000     0.897380000000    -0.0770522  
C546     C      0.896880000000     0.572860000000     0.869610000000    -0.078052   
C547     C      0.931050000000     0.568480000000     0.859450000000     0.00669863 
C548     C      0.859910000000     0.603360000000     0.906500000000     0.00880672 
C549     C      0.708850000000     0.065510000000     0.920100000000    -0.0782172  
C550     C      0.676030000000     0.079140000000     0.912670000000    -0.0789956  
C551     C      0.652500000000     0.049870000000     0.909920000000     0.00995532 
C552     C      0.733400000000     0.093870000000     0.920730000000     0.00829028 
C553     C      0.684690000000     0.603880000000     0.657710000000    -0.0801253  
C554     C      0.685210000000     0.100180000000     0.693400000000    -0.0810246  
C555     C      0.652400000000     0.104400000000     0.707770000000     0.0077024  
C556     C      0.717610000000     0.600280000000     0.643450000000     0.00695098 
C557     C      0.928860000000     0.625610000000     0.699740000000    -0.0811743  
C558     C      0.927830000000     0.616180000000     0.664970000000    -0.0796753  
C559     C      0.895800000000     0.623420000000     0.649890000000     0.00709125 
C560     C      0.961420000000     0.618410000000     0.713530000000     0.00797652 
C561     C      0.039880000000     0.678460000000     0.972180000000    -0.0788601  
C562     C      0.569690000000     0.705030000000     0.968830000000    -0.0793074  
C563     C      0.068280000000     0.726100000000     0.999990000000     0.0132672  
C564     C      0.546020000000     0.651780000000     0.943990000000     0.00866129 
C565     C      0.551540000000     0.947660000000     0.917290000000    -0.0772323  
C566     C      0.525880000000     0.970220000000     0.903190000000    -0.0766922  
C567     C      0.023160000000     0.967400000000     0.868980000000     0.0112257  
C568     C      0.553030000000     0.950600000000     0.953070000000     0.00642265 
C569     C      0.006510000000     0.970460000000     0.681450000000    -0.0848168  
C570     C      0.534390000000     0.987480000000     0.696550000000    -0.0792454  
C571     C      0.027440000000     0.994890000000     0.731820000000     0.00915989 
C572     C      0.511690000000     0.963480000000     0.645890000000     0.00607444 
C573     C      0.059440000000     0.766160000000     0.697440000000    -0.0753205  
C574     C      0.089100000000     0.748320000000     0.709550000000    -0.0796391  
C575     C      0.082650000000     0.711740000000     0.720590000000     0.00779423 
C576     C      0.065260000000     0.804210000000     0.691720000000     0.00794066 
Co1      Co     0.557640000000     0.103840000000     0.269740000000     0.854404   
Co2      Co     0.041600000000     0.585520000000     0.353470000000     0.847418   
Co3      Co     0.529940000000     0.143360000000     0.318150000000     0.864637   
Co4      Co     0.092690000000     0.567940000000     0.315450000000     0.861346   
Co5      Co     0.565410000000     0.309160000000     0.078860000000     0.845238   
Co6      Co     0.043110000000     0.399430000000     0.556170000000     0.848559   
Co7      Co     0.508970000000     0.345000000000     0.082000000000     0.838762   
Co8      Co     0.091310000000     0.355030000000     0.536810000000     0.851559   
Co9      Co     0.351860000000     0.134450000000     0.030300000000     0.895972   
Co10     Co     0.268970000000     0.611560000000     0.526970000000     0.89493    
Co11     Co     0.306080000000     0.132770000000     0.080390000000     0.8928     
Co12     Co     0.323550000000     0.572170000000     0.509670000000     0.905035   
Co13     Co     0.557640000000     0.103860000000     0.769740000000     0.854388   
Co14     Co     0.041600000000     0.585540000000     0.853470000000     0.847576   
Co15     Co     0.529950000000     0.143390000000     0.818150000000     0.86464    
Co16     Co     0.092690000000     0.567970000000     0.815450000000     0.861169   
Co17     Co     0.565380000000     0.309150000000     0.578870000000     0.845253   
Co18     Co     0.043120000000     0.399430000000     0.056160000000     0.848494   
Co19     Co     0.508950000000     0.345010000000     0.582010000000     0.839036   
Co20     Co     0.091330000000     0.355050000000     0.036800000000     0.850027   
Co21     Co     0.351860000000     0.134450000000     0.530310000000     0.897849   
Co22     Co     0.268970000000     0.611570000000     0.026960000000     0.893006   
Co23     Co     0.306080000000     0.132770000000     0.580390000000     0.892739   
Co24     Co     0.323540000000     0.572190000000     0.009640000000     0.901937   
Co25     Co     0.557600000000     0.603400000000     0.269810000000     0.854505   
Co26     Co     0.041580000000     0.085780000000     0.353310000000     0.847435   
Co27     Co     0.530000000000     0.642970000000     0.318270000000     0.865001   
Co28     Co     0.092720000000     0.068220000000     0.315370000000     0.861312   
Co29     Co     0.565600000000     0.809220000000     0.078950000000     0.84507    
Co30     Co     0.043070000000     0.899440000000     0.556280000000     0.848551   
Co31     Co     0.509150000000     0.845010000000     0.082200000000     0.838655   
Co32     Co     0.091390000000     0.855160000000     0.537010000000     0.851378   
Co33     Co     0.351910000000     0.634610000000     0.030500000000     0.895764   
Co34     Co     0.268890000000     0.111460000000     0.526820000000     0.895281   
Co35     Co     0.306130000000     0.632830000000     0.080570000000     0.892843   
Co36     Co     0.323460000000     0.071950000000     0.509660000000     0.905297   
Co37     Co     0.557600000000     0.603430000000     0.769820000000     0.854448   
Co38     Co     0.041570000000     0.085810000000     0.853310000000     0.847532   
Co39     Co     0.530010000000     0.643000000000     0.818280000000     0.864814   
Co40     Co     0.092720000000     0.068250000000     0.815380000000     0.861404   
Co41     Co     0.565570000000     0.809210000000     0.578960000000     0.844846   
Co42     Co     0.043080000000     0.899440000000     0.056270000000     0.848523   
Co43     Co     0.509130000000     0.845010000000     0.582210000000     0.838577   
Co44     Co     0.091410000000     0.855180000000     0.037000000000     0.849704   
Co45     Co     0.351900000000     0.634610000000     0.530500000000     0.897512   
Co46     Co     0.268890000000     0.111480000000     0.026810000000     0.893309   
Co47     Co     0.306130000000     0.632830000000     0.580570000000     0.892716   
Co48     Co     0.323450000000     0.071970000000     0.009630000000     0.902163   
Co49     Co     0.057400000000     0.105860000000     0.270270000000     0.853747   
Co50     Co     0.542300000000     0.583530000000     0.352990000000     0.851058   
Co51     Co     0.029150000000     0.145070000000     0.318500000000     0.858069   
Co52     Co     0.593280000000     0.565920000000     0.314790000000     0.86248    
Co53     Co     0.064940000000     0.309780000000     0.079700000000     0.845415   
Co54     Co     0.543260000000     0.398810000000     0.555490000000     0.848494   
Co55     Co     0.008670000000     0.345900000000     0.082930000000     0.83059    
Co56     Co     0.591770000000     0.354750000000     0.536290000000     0.851412   
Co57     Co     0.852000000000     0.135080000000     0.029830000000     0.897776   
Co58     Co     0.769120000000     0.611910000000     0.526420000000     0.896525   
Co59     Co     0.806220000000     0.133050000000     0.079970000000     0.893719   
Co60     Co     0.823850000000     0.572490000000     0.509520000000     0.906133   
Co61     Co     0.057400000000     0.105890000000     0.770270000000     0.853793   
Co62     Co     0.542300000000     0.583550000000     0.852990000000     0.8511     
Co63     Co     0.029160000000     0.145100000000     0.818510000000     0.858104   
Co64     Co     0.593280000000     0.565940000000     0.814790000000     0.862561   
Co65     Co     0.064910000000     0.309780000000     0.579720000000     0.845458   
Co66     Co     0.543270000000     0.398810000000     0.055490000000     0.848381   
Co67     Co     0.008650000000     0.345910000000     0.582940000000     0.830667   
Co68     Co     0.591800000000     0.354770000000     0.036290000000     0.849901   
Co69     Co     0.852000000000     0.135080000000     0.529830000000     0.899624   
Co70     Co     0.769120000000     0.611930000000     0.026410000000     0.89452    
Co71     Co     0.806220000000     0.133060000000     0.579970000000     0.893595   
Co72     Co     0.823840000000     0.572500000000     0.009490000000     0.902988   
Co73     Co     0.057330000000     0.605580000000     0.270380000000     0.853953   
Co74     Co     0.542230000000     0.083920000000     0.352860000000     0.851121   
Co75     Co     0.029130000000     0.644790000000     0.318660000000     0.857949   
Co76     Co     0.593310000000     0.066390000000     0.314760000000     0.862666   
Co77     Co     0.065060000000     0.809800000000     0.079810000000     0.845048   
Co78     Co     0.543270000000     0.898900000000     0.555660000000     0.848368   
Co79     Co     0.008770000000     0.845850000000     0.083100000000     0.830424   
Co80     Co     0.591940000000     0.855020000000     0.536560000000     0.851162   
Co81     Co     0.852030000000     0.635250000000     0.029970000000     0.897567   
Co82     Co     0.769040000000     0.111850000000     0.526300000000     0.896842   
Co83     Co     0.806270000000     0.633080000000     0.080110000000     0.893976   
Co84     Co     0.823740000000     0.072290000000     0.509530000000     0.906316   
Co85     Co     0.057330000000     0.605610000000     0.770390000000     0.853737   
Co86     Co     0.542220000000     0.083930000000     0.852860000000     0.851258   
Co87     Co     0.029140000000     0.644820000000     0.818670000000     0.858196   
Co88     Co     0.593300000000     0.066400000000     0.814770000000     0.862694   
Co89     Co     0.065030000000     0.809790000000     0.579830000000     0.845078   
Co90     Co     0.543280000000     0.898910000000     0.055650000000     0.84834    
Co91     Co     0.008750000000     0.845860000000     0.583120000000     0.830572   
Co92     Co     0.591970000000     0.855040000000     0.036560000000     0.849475   
Co93     Co     0.852030000000     0.635250000000     0.529980000000     0.899547   
Co94     Co     0.769040000000     0.111860000000     0.026290000000     0.894736   
Co95     Co     0.806270000000     0.633080000000     0.580120000000     0.893626   
Co96     Co     0.823730000000     0.072310000000     0.009500000000     0.903191   
H1       H      0.470140000000     0.443820000000     0.996870000000     0.0451597  
H2       H      0.429760000000     0.433850000000     0.487910000000     0.0265967  
H3       H      0.397680000000     0.511810000000     0.553320000000     0.0396764  
H4       H      0.437810000000     0.520530000000     0.063420000000     0.0269379  
H5       H      0.414450000000     0.496100000000     0.499090000000     0.0531129  
H6       H      0.454560000000     0.506030000000     0.008830000000     0.0491185  
H7       H      0.438630000000     0.570500000000     0.032460000000     0.101775   
H8       H      0.453770000000     0.461510000000     0.050950000000     0.0560969  
H9       H      0.413740000000     0.451530000000     0.541530000000     0.0486083  
H10      H      0.431100000000     0.385530000000     0.521110000000     0.100835   
H11      H      0.384510000000     0.237130000000     0.042910000000     0.0441935  
H12      H      0.375190000000     0.273630000000     0.567020000000     0.0293436  
H13      H      0.457040000000     0.255750000000     0.623850000000     0.0382643  
H14      H      0.456540000000     0.211030000000     0.113980000000     0.0247385  
H15      H      0.437470000000     0.271700000000     0.572020000000     0.061908   
H16      H      0.441970000000     0.228700000000     0.057730000000     0.0537477  
H17      H      0.505180000000     0.216590000000     0.091110000000     0.101491   
H18      H      0.402500000000     0.207720000000     0.094680000000     0.0556976  
H19      H      0.398840000000     0.248920000000     0.612780000000     0.0459104  
H20      H      0.336560000000     0.241220000000     0.595310000000     0.101497   
H21      H      0.175430000000     0.439510000000     0.101940000000     0.0279801  
H22      H      0.169990000000     0.415310000000     0.566370000000     0.0455149  
H23      H      0.204100000000     0.505770000000     0.514220000000     0.0339281  
H24      H      0.209010000000     0.526710000000     0.051210000000     0.0422867  
H25      H      0.214080000000     0.449180000000     0.539360000000     0.0465084  
H26      H      0.220260000000     0.470080000000     0.076490000000     0.0462196  
H27      H      0.262570000000     0.482500000000     0.030160000000     0.100659   
H28      H      0.165030000000     0.493420000000     0.073480000000     0.0448303  
H29      H      0.159270000000     0.470070000000     0.537630000000     0.0518163  
H30      H      0.120940000000     0.459090000000     0.599700000000     0.100621   
H31      H      0.187140000000     0.321100000000     0.545880000000     0.0455739  
H32      H      0.210780000000     0.310950000000     0.079730000000     0.0277233  
H33      H      0.210810000000     0.211400000000     0.019360000000     0.0382646  
H34      H      0.247710000000     0.225940000000     0.505110000000     0.0356141  
H35      H      0.242590000000     0.278660000000     0.040050000000     0.0450958  
H36      H      0.215010000000     0.275900000000     0.508450000000     0.0447524  
H37      H      0.250550000000     0.227950000000     0.572750000000     0.102481   
H38      H      0.172820000000     0.258200000000     0.542170000000     0.0536432  
H39      H      0.198480000000     0.250200000000     0.074670000000     0.0495703  
H40      H      0.164460000000     0.291990000000     0.108250000000     0.10086    
H41      H      0.347670000000     0.579340000000     0.412590000000     0.0449103  
H42      H      0.348690000000     0.113600000000     0.386440000000     0.0272761  
H43      H      0.445830000000     0.057640000000     0.378910000000     0.0421162  
H44      H      0.432950000000     0.548470000000     0.341980000000     0.0329443  
H45      H      0.383700000000     0.082790000000     0.349640000000     0.0430331  
H46      H      0.387500000000     0.547240000000     0.376240000000     0.042144   
H47      H      0.429950000000     0.619470000000     0.341540000000     0.102104   
H48      H      0.405790000000     0.583590000000     0.419660000000     0.0544813  
H49      H      0.406460000000     0.120210000000     0.393230000000     0.0526035  
H50      H      0.365380000000     0.151890000000     0.427680000000     0.101756   
H51      H      0.225180000000     0.616050000000     0.436590000000     0.0430699  
H52      H      0.236270000000     0.104490000000     0.396840000000     0.0279113  
H53      H      0.156520000000     0.036810000000     0.389180000000     0.0424463  
H54      H      0.154420000000     0.534440000000     0.431250000000     0.027446   
H55      H      0.176150000000     0.095210000000     0.390790000000     0.0526681  
H56      H      0.168290000000     0.598130000000     0.432420000000     0.0495576  
H57      H      0.109330000000     0.568940000000     0.432390000000     0.100659   
H58      H      0.207770000000     0.553920000000     0.443970000000     0.0533456  
H59      H      0.214940000000     0.047460000000     0.402890000000     0.0463615  
H60      H      0.275190000000     0.064840000000     0.416320000000     0.100519   
H61      H      0.227930000000     0.576280000000     0.151810000000     0.032523   
H62      H      0.232840000000     0.121440000000     0.152310000000     0.0412484  
H63      H      0.144170000000     0.132120000000     0.205320000000     0.0368396  
H64      H      0.134970000000     0.588710000000     0.196050000000     0.0388795  
H65      H      0.200950000000     0.120210000000     0.204180000000     0.0455062  
H66      H      0.193940000000     0.575190000000     0.200110000000     0.0461671  
H67      H      0.173520000000     0.590650000000     0.252520000000     0.10095    
H68      H      0.168840000000     0.584680000000     0.148310000000     0.0444758  
H69      H      0.175030000000     0.129920000000     0.151710000000     0.0474928  
H70      H      0.194550000000     0.094990000000     0.098850000000     0.100597   
H71      H      0.479850000000     0.125530000000     0.197690000000     0.0383327  
H72      H      0.463990000000     0.587940000000     0.216630000000     0.0369469  
H73      H      0.378110000000     0.602390000000     0.156760000000     0.0371694  
H74      H      0.386330000000     0.147330000000     0.158950000000     0.0343579  
H75      H      0.432560000000     0.586810000000     0.162510000000     0.0442227  
H76      H      0.446000000000     0.129450000000     0.153110000000     0.0440679  
H77      H      0.421160000000     0.127050000000     0.106650000000     0.100225   
H78      H      0.423750000000     0.151920000000     0.202410000000     0.0459644  
H79      H      0.410430000000     0.609370000000     0.213420000000     0.0447146  
H80      H      0.447480000000     0.647600000000     0.253670000000     0.102365   
H81      H      0.021430000000     0.133420000000     0.449090000000     0.0393759  
H82      H      0.062410000000     0.139790000000     0.444240000000     0.0394938  
H83      H      0.546760000000     0.229850000000     0.508880000000     0.0418492  
H84      H      0.583660000000     0.210400000000     0.517180000000     0.0382867  
H85      H      0.058730000000     0.223440000000     0.450010000000     0.04825    
H86      H      0.087630000000     0.193740000000     0.464050000000     0.0467017  
H87      H      0.094850000000     0.263300000000     0.473460000000     0.10171    
H88      H      0.546760000000     0.162450000000     0.493380000000     0.0429445  
H89      H      0.519690000000     0.189040000000     0.472460000000     0.0479152  
H90      H      0.533650000000     0.194280000000     0.412580000000     0.102548   
H91      H      0.029950000000     0.447100000000     0.464410000000     0.0417852  
H92      H      0.060930000000     0.477840000000     0.460450000000     0.0349633  
H93      H      0.519150000000     0.437670000000     0.362060000000     0.0252213  
H94      H      0.502140000000     0.479440000000     0.358960000000     0.0389725  
H95      H      0.031230000000     0.498930000000     0.409840000000     0.0597166  
H96      H      0.003180000000     0.465390000000     0.415320000000     0.0411354  
H97      H      0.068000000000     0.461080000000     0.346390000000     0.101248   
H98      H      0.546550000000     0.420300000000     0.410780000000     0.0479941  
H99      H      0.574290000000     0.454640000000     0.407040000000     0.0508968  
H100     H      0.595160000000     0.420070000000     0.450880000000     0.10229    
H101     H      0.037470000000     0.460820000000     0.141500000000     0.044435   
H102     H      0.004290000000     0.487100000000     0.132970000000     0.0327467  
H103     H      0.511170000000     0.512780000000     0.235080000000     0.0406555  
H104     H      0.518440000000     0.468190000000     0.241310000000     0.0262834  
H105     H      0.038170000000     0.513760000000     0.185410000000     0.0509307  
H106     H      0.055530000000     0.473030000000     0.194350000000     0.0486576  
H107     H      0.071130000000     0.479780000000     0.253080000000     0.102458   
H108     H      0.504600000000     0.443170000000     0.192500000000     0.0473617  
H109     H      0.484840000000     0.482780000000     0.185000000000     0.0427046  
H110     H      0.473910000000     0.426440000000     0.146870000000     0.101316   
H111     H      0.087470000000     0.308040000000     0.178630000000     0.0442663  
H112     H      0.566700000000     0.315100000000     0.213810000000     0.0263513  
H113     H      0.567360000000     0.195960000000     0.201920000000     0.0402567  
H114     H      0.604690000000     0.195680000000     0.220460000000     0.0368969  
H115     H      0.599500000000     0.261080000000     0.227360000000     0.0451861  
H116     H      0.106580000000     0.247720000000     0.190170000000     0.0463243  
H117     H      0.062960000000     0.234380000000     0.262750000000     0.101354   
H118     H      0.551480000000     0.252120000000     0.173860000000     0.0575248  
H119     H      0.539670000000     0.261390000000     0.213390000000     0.0495268  
H120     H      0.519060000000     0.325520000000     0.186080000000     0.10142    
H121     H      0.470130000000     0.443840000000     0.496880000000     0.0416875  
H122     H      0.429770000000     0.433840000000     0.987890000000     0.0298835  
H123     H      0.397680000000     0.511820000000     0.053270000000     0.0392793  
H124     H      0.437810000000     0.520510000000     0.563460000000     0.0272182  
H125     H      0.414470000000     0.496090000000     0.999050000000     0.0560094  
H126     H      0.454550000000     0.506040000000     0.508870000000     0.0489972  
H127     H      0.438630000000     0.570490000000     0.532490000000     0.102238   
H128     H      0.453770000000     0.461500000000     0.550970000000     0.0567552  
H129     H      0.413750000000     0.451540000000     0.041510000000     0.0477294  
H130     H      0.431120000000     0.385520000000     0.021090000000     0.10024    
H131     H      0.384500000000     0.237150000000     0.542900000000     0.0445504  
H132     H      0.375220000000     0.273610000000     0.067050000000     0.0291552  
H133     H      0.457090000000     0.255710000000     0.123840000000     0.0382492  
H134     H      0.456480000000     0.211060000000     0.614020000000     0.0247852  
H135     H      0.437500000000     0.271690000000     0.072020000000     0.0617582  
H136     H      0.441950000000     0.228710000000     0.557760000000     0.0540513  
H137     H      0.505140000000     0.216600000000     0.591160000000     0.101664   
H138     H      0.402450000000     0.207760000000     0.594700000000     0.0557164  
H139     H      0.398890000000     0.248870000000     0.112790000000     0.0459401  
H140     H      0.336570000000     0.241220000000     0.095330000000     0.101453   
H141     H      0.175430000000     0.439460000000     0.601950000000     0.0279726  
H142     H      0.170000000000     0.415330000000     0.066370000000     0.0453899  
H143     H      0.204090000000     0.505770000000     0.014180000000     0.033313   
H144     H      0.209020000000     0.526690000000     0.551270000000     0.0423999  
H145     H      0.214090000000     0.449190000000     0.039350000000     0.0462161  
H146     H      0.220260000000     0.470040000000     0.576510000000     0.046261   
H147     H      0.262580000000     0.482480000000     0.530210000000     0.100885   
H148     H      0.165040000000     0.493400000000     0.573520000000     0.0449625  
H149     H      0.159270000000     0.470070000000     0.037600000000     0.0513575  
H150     H      0.120950000000     0.459110000000     0.099690000000     0.100496   
H151     H      0.187180000000     0.321140000000     0.045880000000     0.0453117  
H152     H      0.210750000000     0.310910000000     0.579730000000     0.0277884  
H153     H      0.210820000000     0.211380000000     0.519340000000     0.0387075  
H154     H      0.247690000000     0.225950000000     0.005110000000     0.0350683  
H155     H      0.242570000000     0.278650000000     0.540050000000     0.0452611  
H156     H      0.215020000000     0.275920000000     0.008470000000     0.0443016  
H157     H      0.250560000000     0.227960000000     0.072770000000     0.102323   
H158     H      0.172830000000     0.258230000000     0.042190000000     0.0533517  
H159     H      0.198460000000     0.250160000000     0.574650000000     0.0496152  
H160     H      0.164430000000     0.291950000000     0.608250000000     0.100858   
H161     H      0.347640000000     0.579420000000     0.912560000000     0.0450236  
H162     H      0.348690000000     0.113700000000     0.886430000000     0.0273542  
H163     H      0.445810000000     0.057690000000     0.878910000000     0.0422307  
H164     H      0.432940000000     0.548530000000     0.841980000000     0.0329871  
H165     H      0.383690000000     0.082870000000     0.849630000000     0.0430659  
H166     H      0.387480000000     0.547310000000     0.876220000000     0.0422606  
H167     H      0.429950000000     0.619540000000     0.841540000000     0.102143   
H168     H      0.405760000000     0.583630000000     0.919650000000     0.0547918  
H169     H      0.406460000000     0.120270000000     0.893240000000     0.052732   
H170     H      0.365360000000     0.151960000000     0.927680000000     0.102014   
H171     H      0.225150000000     0.616080000000     0.936590000000     0.0433881  
H172     H      0.236240000000     0.104530000000     0.896840000000     0.0280039  
H173     H      0.156500000000     0.036820000000     0.889190000000     0.0425405  
H174     H      0.154410000000     0.534460000000     0.931260000000     0.0278113  
H175     H      0.176130000000     0.095230000000     0.890800000000     0.0527811  
H176     H      0.168270000000     0.598160000000     0.932420000000     0.0498707  
H177     H      0.109310000000     0.568940000000     0.932400000000     0.100984   
H178     H      0.207760000000     0.553950000000     0.943970000000     0.0538514  
H179     H      0.214930000000     0.047490000000     0.902890000000     0.046522   
H180     H      0.275170000000     0.064890000000     0.916300000000     0.100695   
H181     H      0.227930000000     0.576280000000     0.651830000000     0.0325214  
H182     H      0.232850000000     0.121440000000     0.652320000000     0.0412486  
H183     H      0.144180000000     0.132140000000     0.705330000000     0.0368785  
H184     H      0.134970000000     0.588730000000     0.696060000000     0.0388973  
H185     H      0.200960000000     0.120220000000     0.704200000000     0.0455183  
H186     H      0.193940000000     0.575200000000     0.700120000000     0.0461974  
H187     H      0.173530000000     0.590670000000     0.752530000000     0.10095    
H188     H      0.168850000000     0.584680000000     0.648330000000     0.0445353  
H189     H      0.175040000000     0.129920000000     0.651720000000     0.0475634  
H190     H      0.194560000000     0.094970000000     0.598870000000     0.100819   
H191     H      0.479850000000     0.125580000000     0.697690000000     0.0383571  
H192     H      0.464000000000     0.587990000000     0.716620000000     0.0369363  
H193     H      0.378110000000     0.602450000000     0.656760000000     0.0371973  
H194     H      0.386340000000     0.147390000000     0.658960000000     0.0343341  
H195     H      0.432560000000     0.586860000000     0.662510000000     0.0442119  
H196     H      0.446010000000     0.129510000000     0.653110000000     0.0440675  
H197     H      0.421170000000     0.127120000000     0.606650000000     0.100188   
H198     H      0.423760000000     0.151970000000     0.702410000000     0.045958   
H199     H      0.410430000000     0.609430000000     0.713430000000     0.0446916  
H200     H      0.447490000000     0.647650000000     0.753680000000     0.102346   
H201     H      0.021470000000     0.133430000000     0.949100000000     0.039771   
H202     H      0.062460000000     0.139790000000     0.944230000000     0.0397684  
H203     H      0.546850000000     0.229840000000     0.008900000000     0.038821   
H204     H      0.583770000000     0.210410000000     0.017170000000     0.035265   
H205     H      0.058790000000     0.223460000000     0.950020000000     0.0488584  
H206     H      0.087690000000     0.193740000000     0.964020000000     0.0474989  
H207     H      0.094940000000     0.263300000000     0.973470000000     0.102321   
H208     H      0.546850000000     0.162460000000     0.993380000000     0.0435991  
H209     H      0.519760000000     0.189050000000     0.972480000000     0.0483549  
H210     H      0.533720000000     0.194300000000     0.912590000000     0.102699   
H211     H      0.029940000000     0.447090000000     0.964400000000     0.0422905  
H212     H      0.060910000000     0.477840000000     0.960450000000     0.0353755  
H213     H      0.519130000000     0.437690000000     0.862050000000     0.0253137  
H214     H      0.502130000000     0.479460000000     0.858960000000     0.0390341  
H215     H      0.031220000000     0.498940000000     0.909840000000     0.0598833  
H216     H      0.003170000000     0.465400000000     0.915310000000     0.0413739  
H217     H      0.067980000000     0.461100000000     0.846390000000     0.101303   
H218     H      0.546540000000     0.420320000000     0.910780000000     0.0482268  
H219     H      0.574280000000     0.454660000000     0.907040000000     0.0510425  
H220     H      0.595160000000     0.420090000000     0.950870000000     0.102586   
H221     H      0.037470000000     0.460840000000     0.641500000000     0.0444387  
H222     H      0.004290000000     0.487130000000     0.632970000000     0.0327894  
H223     H      0.511170000000     0.512820000000     0.735060000000     0.0406536  
H224     H      0.518430000000     0.468230000000     0.741310000000     0.0262927  
H225     H      0.038180000000     0.513780000000     0.685400000000     0.0509666  
H226     H      0.055520000000     0.473050000000     0.694350000000     0.0486754  
H227     H      0.071130000000     0.479810000000     0.753080000000     0.102411   
H228     H      0.504590000000     0.443200000000     0.692490000000     0.0473761  
H229     H      0.484840000000     0.482810000000     0.684980000000     0.0426922  
H230     H      0.473900000000     0.426460000000     0.646870000000     0.101265   
H231     H      0.087470000000     0.308070000000     0.678640000000     0.0442516  
H232     H      0.566700000000     0.315120000000     0.713820000000     0.0263659  
H233     H      0.567360000000     0.195980000000     0.701930000000     0.0402687  
H234     H      0.604700000000     0.195710000000     0.720460000000     0.0368932  
H235     H      0.599500000000     0.261100000000     0.727360000000     0.0452208  
H236     H      0.106590000000     0.247750000000     0.690180000000     0.046364   
H237     H      0.062980000000     0.234410000000     0.762760000000     0.101403   
H238     H      0.551470000000     0.252140000000     0.673870000000     0.0575546  
H239     H      0.539680000000     0.261410000000     0.713400000000     0.049537   
H240     H      0.519060000000     0.325550000000     0.686090000000     0.101432   
H241     H      0.469980000000     0.943650000000     0.997070000000     0.0451779  
H242     H      0.429620000000     0.933570000000     0.488150000000     0.0266107  
H243     H      0.397420000000     0.011520000000     0.553510000000     0.0396631  
H244     H      0.437530000000     0.020190000000     0.063730000000     0.0269274  
H245     H      0.414310000000     0.995840000000     0.499330000000     0.0532072  
H246     H      0.454390000000     0.005800000000     0.009130000000     0.0491654  
H247     H      0.438470000000     0.070180000000     0.032800000000     0.101837   
H248     H      0.453600000000     0.961230000000     0.051200000000     0.0560488  
H249     H      0.413580000000     0.951230000000     0.541740000000     0.0485574  
H250     H      0.431120000000     0.885250000000     0.521350000000     0.100829   
H251     H      0.384590000000     0.737270000000     0.043310000000     0.0442107  
H252     H      0.375360000000     0.773660000000     0.567590000000     0.0293752  
H253     H      0.457400000000     0.755610000000     0.624070000000     0.0382346  
H254     H      0.456870000000     0.710920000000     0.114070000000     0.0247618  
H255     H      0.437630000000     0.771730000000     0.572360000000     0.06197    
H256     H      0.442110000000     0.728790000000     0.057920000000     0.0537768  
H257     H      0.505440000000     0.716580000000     0.091070000000     0.101533   
H258     H      0.402770000000     0.707640000000     0.094910000000     0.0556868  
H259     H      0.399150000000     0.748750000000     0.613180000000     0.045881   
H260     H      0.336790000000     0.741160000000     0.595850000000     0.101614   
H261     H      0.175210000000     0.940080000000     0.102310000000     0.0279337  
H262     H      0.169910000000     0.915470000000     0.566970000000     0.0454661  
H263     H      0.203870000000     0.005450000000     0.514040000000     0.0338727  
H264     H      0.208700000000     0.026800000000     0.050850000000     0.0423431  
H265     H      0.213930000000     0.949160000000     0.539700000000     0.0465071  
H266     H      0.220000000000     0.970480000000     0.076650000000     0.0462739  
H267     H      0.262300000000     0.982420000000     0.030050000000     0.100648   
H268     H      0.164730000000     0.993640000000     0.073340000000     0.0448232  
H269     H      0.159080000000     0.969880000000     0.537690000000     0.0519149  
H270     H      0.120700000000     0.959320000000     0.599940000000     0.100541   
H271     H      0.187230000000     0.821210000000     0.545970000000     0.045539   
H272     H      0.210890000000     0.811110000000     0.079820000000     0.0277281  
H273     H      0.210970000000     0.711530000000     0.019480000000     0.0382952  
H274     H      0.247870000000     0.726080000000     0.505230000000     0.0356229  
H275     H      0.242730000000     0.778800000000     0.040180000000     0.0450611  
H276     H      0.215150000000     0.776030000000     0.508580000000     0.0447521  
H277     H      0.250720000000     0.728080000000     0.572870000000     0.102462   
H278     H      0.172970000000     0.758290000000     0.542290000000     0.0536135  
H279     H      0.198640000000     0.750340000000     0.074800000000     0.049594   
H280     H      0.164590000000     0.792060000000     0.108350000000     0.10081    
H281     H      0.348960000000     0.077860000000     0.413020000000     0.0452     
H282     H      0.348520000000     0.614810000000     0.386250000000     0.0270557  
H283     H      0.445760000000     0.558460000000     0.380680000000     0.0419025  
H284     H      0.432560000000     0.048310000000     0.340220000000     0.0326636  
H285     H      0.383930000000     0.583210000000     0.350490000000     0.0431048  
H286     H      0.387630000000     0.046780000000     0.375290000000     0.0420392  
H287     H      0.429780000000     0.119040000000     0.340120000000     0.101996   
H288     H      0.407010000000     0.083400000000     0.418330000000     0.0543591  
H289     H      0.406570000000     0.620450000000     0.394630000000     0.0526575  
H290     H      0.364460000000     0.652980000000     0.427890000000     0.101758   
H291     H      0.225450000000     0.116230000000     0.436250000000     0.0430042  
H292     H      0.236070000000     0.604620000000     0.397130000000     0.027975   
H293     H      0.156640000000     0.536500000000     0.389110000000     0.0424504  
H294     H      0.154290000000     0.034980000000     0.431330000000     0.0274432  
H295     H      0.176010000000     0.595000000000     0.390990000000     0.052671   
H296     H      0.168450000000     0.098610000000     0.432210000000     0.0495542  
H297     H      0.109340000000     0.069700000000     0.432310000000     0.10065    
H298     H      0.207720000000     0.054250000000     0.443970000000     0.05344    
H299     H      0.215030000000     0.547430000000     0.402850000000     0.0463101  
H300     H      0.275110000000     0.564970000000     0.416440000000     0.100547   
H301     H      0.227900000000     0.076120000000     0.151710000000     0.032488   
H302     H      0.232750000000     0.621610000000     0.152440000000     0.041234   
H303     H      0.144040000000     0.632000000000     0.205440000000     0.0368493  
H304     H      0.135000000000     0.088840000000     0.195970000000     0.0388842  
H305     H      0.200860000000     0.620240000000     0.204310000000     0.0454789  
H306     H      0.193940000000     0.075180000000     0.200030000000     0.046193   
H307     H      0.173580000000     0.090780000000     0.252440000000     0.100905   
H308     H      0.168840000000     0.084670000000     0.148240000000     0.044463   
H309     H      0.174930000000     0.629940000000     0.151830000000     0.0474899  
H310     H      0.194540000000     0.595200000000     0.098940000000     0.100598   
H311     H      0.479730000000     0.624910000000     0.198020000000     0.0384183  
H312     H      0.464220000000     0.088550000000     0.216360000000     0.0370092  
H313     H      0.378170000000     0.102690000000     0.156610000000     0.0371536  
H314     H      0.386320000000     0.647010000000     0.159160000000     0.0343973  
H315     H      0.432630000000     0.087190000000     0.162340000000     0.0442298  
H316     H      0.445960000000     0.629090000000     0.153400000000     0.0440646  
H317     H      0.421180000000     0.626690000000     0.106860000000     0.100152   
H318     H      0.423670000000     0.651440000000     0.202710000000     0.046003   
H319     H      0.410600000000     0.109860000000     0.213240000000     0.0447287  
H320     H      0.447670000000     0.148330000000     0.253290000000     0.10236    
H321     H      0.022500000000     0.633160000000     0.449210000000     0.0394802  
H322     H      0.063410000000     0.639910000000     0.444210000000     0.0392637  
H323     H      0.547580000000     0.729850000000     0.508780000000     0.0418898  
H324     H      0.584590000000     0.710710000000     0.517210000000     0.0383027  
H325     H      0.059250000000     0.723490000000     0.450100000000     0.0482117  
H326     H      0.088320000000     0.693970000000     0.464090000000     0.0466626  
H327     H      0.095270000000     0.763500000000     0.473590000000     0.10168    
H328     H      0.548440000000     0.662320000000     0.493290000000     0.0429451  
H329     H      0.521030000000     0.688570000000     0.472450000000     0.0480414  
H330     H      0.535180000000     0.694160000000     0.412490000000     0.102496   
H331     H      0.030040000000     0.947220000000     0.464540000000     0.0417974  
H332     H      0.061010000000     0.977990000000     0.460690000000     0.0349356  
H333     H      0.519600000000     0.937990000000     0.362260000000     0.0252357  
H334     H      0.502490000000     0.979700000000     0.359150000000     0.0390234  
H335     H      0.031470000000     0.999170000000     0.410000000000     0.0596389  
H336     H      0.003380000000     0.965660000000     0.415450000000     0.0411435  
H337     H      0.068270000000     0.961390000000     0.346600000000     0.101266   
H338     H      0.546910000000     0.920650000000     0.411000000000     0.0480026  
H339     H      0.574620000000     0.955030000000     0.407360000000     0.0508234  
H340     H      0.595440000000     0.920480000000     0.451240000000     0.102251   
H341     H      0.037400000000     0.960880000000     0.141580000000     0.0444122  
H342     H      0.004180000000     0.987070000000     0.132990000000     0.0327363  
H343     H      0.511140000000     0.013240000000     0.235070000000     0.0406763  
H344     H      0.518310000000     0.968670000000     0.241470000000     0.0263063  
H345     H      0.038110000000     0.013870000000     0.185360000000     0.0509159  
H346     H      0.055430000000     0.973170000000     0.194420000000     0.0486876  
H347     H      0.071000000000     0.980010000000     0.253120000000     0.102475   
H348     H      0.504580000000     0.943390000000     0.192720000000     0.0473616  
H349     H      0.484800000000     0.982960000000     0.185090000000     0.0426865  
H350     H      0.474030000000     0.926330000000     0.147180000000     0.101267   
H351     H      0.087590000000     0.807750000000     0.178730000000     0.0442667  
H352     H      0.566950000000     0.814670000000     0.213900000000     0.0263698  
H353     H      0.567130000000     0.695570000000     0.201840000000     0.0401574  
H354     H      0.604470000000     0.695090000000     0.220380000000     0.0369369  
H355     H      0.599530000000     0.760490000000     0.227350000000     0.0452441  
H356     H      0.106550000000     0.747370000000     0.190270000000     0.0462962  
H357     H      0.062740000000     0.734090000000     0.262760000000     0.101373   
H358     H      0.551480000000     0.751850000000     0.173840000000     0.0574878  
H359     H      0.539700000000     0.761090000000     0.213380000000     0.0494963  
H360     H      0.519310000000     0.825310000000     0.186230000000     0.101437   
H361     H      0.469970000000     0.943670000000     0.497080000000     0.0417033  
H362     H      0.429640000000     0.933550000000     0.988130000000     0.0299113  
H363     H      0.397430000000     0.011520000000     0.053460000000     0.0392668  
H364     H      0.437530000000     0.020170000000     0.563770000000     0.0272049  
H365     H      0.414320000000     0.995820000000     0.999290000000     0.0560804  
H366     H      0.454380000000     0.005800000000     0.509170000000     0.0490607  
H367     H      0.438480000000     0.070180000000     0.532820000000     0.10225    
H368     H      0.453590000000     0.961230000000     0.551220000000     0.0567328  
H369     H      0.413590000000     0.951230000000     0.041720000000     0.0476601  
H370     H      0.431140000000     0.885230000000     0.021340000000     0.100242   
H371     H      0.384590000000     0.737290000000     0.543300000000     0.0445733  
H372     H      0.375390000000     0.773640000000     0.067620000000     0.0291652  
H373     H      0.457450000000     0.755570000000     0.124050000000     0.0382503  
H374     H      0.456810000000     0.710950000000     0.614100000000     0.0247887  
H375     H      0.437660000000     0.771720000000     0.072350000000     0.0618039  
H376     H      0.442090000000     0.728790000000     0.557940000000     0.0540522  
H377     H      0.505400000000     0.716580000000     0.591120000000     0.101593   
H378     H      0.402720000000     0.707670000000     0.594930000000     0.0556756  
H379     H      0.399210000000     0.748710000000     0.113190000000     0.045919   
H380     H      0.336800000000     0.741170000000     0.095870000000     0.101543   
H381     H      0.175210000000     0.940030000000     0.602320000000     0.0278882  
H382     H      0.169920000000     0.915490000000     0.066970000000     0.0453691  
H383     H      0.203870000000     0.005450000000     0.014000000000     0.0332229  
H384     H      0.208710000000     0.026780000000     0.550910000000     0.0424931  
H385     H      0.213940000000     0.949170000000     0.039690000000     0.0462441  
H386     H      0.220010000000     0.970440000000     0.576670000000     0.046274   
H387     H      0.262310000000     0.982400000000     0.530100000000     0.10089    
H388     H      0.164740000000     0.993610000000     0.573380000000     0.0449994  
H389     H      0.159080000000     0.969880000000     0.037660000000     0.0514027  
H390     H      0.120700000000     0.959340000000     0.099920000000     0.100518   
H391     H      0.187270000000     0.821250000000     0.045980000000     0.0452987  
H392     H      0.210860000000     0.811070000000     0.579820000000     0.0277832  
H393     H      0.210980000000     0.711510000000     0.519450000000     0.038701   
H394     H      0.247860000000     0.726090000000     0.005240000000     0.0351095  
H395     H      0.242710000000     0.778790000000     0.540170000000     0.0452681  
H396     H      0.215160000000     0.776050000000     0.008590000000     0.044232   
H397     H      0.250720000000     0.728090000000     0.072880000000     0.102452   
H398     H      0.172980000000     0.758330000000     0.042320000000     0.053347   
H399     H      0.198620000000     0.750300000000     0.574770000000     0.0496584  
H400     H      0.164560000000     0.792030000000     0.608350000000     0.100845   
H401     H      0.348930000000     0.077940000000     0.912990000000     0.0453315  
H402     H      0.348520000000     0.614900000000     0.886240000000     0.0271345  
H403     H      0.445740000000     0.558510000000     0.880680000000     0.0420257  
H404     H      0.432540000000     0.048370000000     0.840210000000     0.0326716  
H405     H      0.383930000000     0.583280000000     0.850480000000     0.0431435  
H406     H      0.387600000000     0.046850000000     0.875270000000     0.0421661  
H407     H      0.429790000000     0.119100000000     0.840130000000     0.102098   
H408     H      0.406980000000     0.083450000000     0.918330000000     0.0546666  
H409     H      0.406570000000     0.620500000000     0.894630000000     0.0528176  
H410     H      0.364440000000     0.653040000000     0.927900000000     0.102089   
H411     H      0.225430000000     0.116260000000     0.936250000000     0.0433332  
H412     H      0.236040000000     0.604660000000     0.897120000000     0.028052   
H413     H      0.156630000000     0.536520000000     0.889120000000     0.042528   
H414     H      0.154280000000     0.035010000000     0.931340000000     0.0278135  
H415     H      0.175980000000     0.595020000000     0.891000000000     0.0527288  
H416     H      0.168430000000     0.098630000000     0.932210000000     0.0499069  
H417     H      0.109320000000     0.069700000000     0.932320000000     0.100978   
H418     H      0.207710000000     0.054280000000     0.943970000000     0.0539383  
H419     H      0.215020000000     0.547460000000     0.902850000000     0.0464677  
H420     H      0.275100000000     0.565020000000     0.916420000000     0.100662   
H421     H      0.227900000000     0.076110000000     0.651730000000     0.032472   
H422     H      0.232760000000     0.621610000000     0.652450000000     0.0412466  
H423     H      0.144060000000     0.632020000000     0.705450000000     0.0368676  
H424     H      0.135000000000     0.088860000000     0.695990000000     0.0389334  
H425     H      0.200870000000     0.620250000000     0.704320000000     0.0455085  
H426     H      0.193940000000     0.075200000000     0.700050000000     0.0462284  
H427     H      0.173580000000     0.090800000000     0.752450000000     0.100972   
H428     H      0.168840000000     0.084680000000     0.648250000000     0.0444985  
H429     H      0.174940000000     0.629940000000     0.651840000000     0.0475435  
H430     H      0.194550000000     0.595190000000     0.598960000000     0.100822   
H431     H      0.479740000000     0.624960000000     0.698030000000     0.0384258  
H432     H      0.464230000000     0.088600000000     0.716360000000     0.0370214  
H433     H      0.378180000000     0.102750000000     0.656610000000     0.0371472  
H434     H      0.386330000000     0.647070000000     0.659170000000     0.0344095  
H435     H      0.432640000000     0.087240000000     0.662340000000     0.0442317  
H436     H      0.445970000000     0.629150000000     0.653400000000     0.0440803  
H437     H      0.421190000000     0.626760000000     0.606870000000     0.100244   
H438     H      0.423680000000     0.651490000000     0.702720000000     0.0459958  
H439     H      0.410600000000     0.109910000000     0.713240000000     0.0447036  
H440     H      0.447680000000     0.148380000000     0.753290000000     0.102408   
H441     H      0.022540000000     0.633180000000     0.949220000000     0.0398841  
H442     H      0.063460000000     0.639920000000     0.944210000000     0.039548   
H443     H      0.547680000000     0.729850000000     0.008800000000     0.0388296  
H444     H      0.584700000000     0.710720000000     0.017200000000     0.0352526  
H445     H      0.059300000000     0.723510000000     0.950110000000     0.0487925  
H446     H      0.088390000000     0.693970000000     0.964070000000     0.0474479  
H447     H      0.095350000000     0.763500000000     0.973590000000     0.102258   
H448     H      0.548530000000     0.662330000000     0.993290000000     0.0435977  
H449     H      0.521110000000     0.688580000000     0.972470000000     0.0484997  
H450     H      0.535250000000     0.694180000000     0.912490000000     0.102677   
H451     H      0.030030000000     0.947210000000     0.964530000000     0.0423148  
H452     H      0.060990000000     0.977990000000     0.960680000000     0.0353577  
H453     H      0.519570000000     0.938010000000     0.862260000000     0.0253025  
H454     H      0.502470000000     0.979720000000     0.859150000000     0.0390568  
H455     H      0.031460000000     0.999180000000     0.910000000000     0.0597944  
H456     H      0.003370000000     0.965680000000     0.915450000000     0.0413811  
H457     H      0.068250000000     0.961410000000     0.846600000000     0.101375   
H458     H      0.546890000000     0.920670000000     0.910990000000     0.0481782  
H459     H      0.574610000000     0.955050000000     0.907350000000     0.0509018  
H460     H      0.595430000000     0.920490000000     0.951230000000     0.102656   
H461     H      0.037400000000     0.960890000000     0.641580000000     0.0444346  
H462     H      0.004180000000     0.987090000000     0.632980000000     0.032796   
H463     H      0.511140000000     0.013280000000     0.735050000000     0.0406755  
H464     H      0.518300000000     0.968710000000     0.741460000000     0.0263157  
H465     H      0.038120000000     0.013900000000     0.685360000000     0.0509533  
H466     H      0.055430000000     0.973190000000     0.694420000000     0.0486858  
H467     H      0.071000000000     0.980040000000     0.753120000000     0.102421   
H468     H      0.504570000000     0.943420000000     0.692720000000     0.0473352  
H469     H      0.484800000000     0.982990000000     0.685070000000     0.0426814  
H470     H      0.474030000000     0.926350000000     0.647170000000     0.10136    
H471     H      0.087590000000     0.807780000000     0.678740000000     0.0442785  
H472     H      0.566950000000     0.814690000000     0.713910000000     0.0264003  
H473     H      0.567130000000     0.695590000000     0.701850000000     0.0401972  
H474     H      0.604470000000     0.695110000000     0.720380000000     0.0369796  
H475     H      0.599530000000     0.760510000000     0.727350000000     0.0452582  
H476     H      0.106550000000     0.747400000000     0.690280000000     0.0463283  
H477     H      0.062750000000     0.734120000000     0.762780000000     0.101367   
H478     H      0.551480000000     0.751870000000     0.673840000000     0.0574968  
H479     H      0.539700000000     0.761110000000     0.713390000000     0.0494817  
H480     H      0.519310000000     0.825340000000     0.686240000000     0.101496   
H481     H      0.970090000000     0.444250000000     0.997200000000     0.0464562  
H482     H      0.929620000000     0.434470000000     0.488480000000     0.0270575  
H483     H      0.898340000000     0.513010000000     0.553750000000     0.0396859  
H484     H      0.938590000000     0.521780000000     0.063270000000     0.0275714  
H485     H      0.914460000000     0.496790000000     0.499410000000     0.0534906  
H486     H      0.954690000000     0.506650000000     0.008670000000     0.0499468  
H487     H      0.938980000000     0.571520000000     0.032070000000     0.102523   
H488     H      0.954120000000     0.462510000000     0.051190000000     0.0571745  
H489     H      0.913990000000     0.452600000000     0.542140000000     0.0488393  
H490     H      0.930890000000     0.386350000000     0.521900000000     0.101329   
H491     H      0.884770000000     0.237490000000     0.043200000000     0.044498   
H492     H      0.874880000000     0.274170000000     0.566860000000     0.029589   
H493     H      0.956030000000     0.257370000000     0.625030000000     0.0393725  
H494     H      0.955630000000     0.212480000000     0.115780000000     0.0256821  
H495     H      0.937140000000     0.272490000000     0.572780000000     0.0621163  
H496     H      0.941960000000     0.229310000000     0.059050000000     0.0543463  
H497     H      0.004540000000     0.217590000000     0.093350000000     0.0978003  
H498     H      0.901970000000     0.208710000000     0.095590000000     0.0555425  
H499     H      0.897920000000     0.250130000000     0.613190000000     0.0460062  
H500     H      0.836140000000     0.241630000000     0.595030000000     0.101561   
H501     H      0.675160000000     0.439710000000     0.101430000000     0.0280755  
H502     H      0.670010000000     0.415670000000     0.565710000000     0.0455994  
H503     H      0.704520000000     0.506320000000     0.514160000000     0.0340608  
H504     H      0.709260000000     0.527070000000     0.051250000000     0.042146   
H505     H      0.714280000000     0.449580000000     0.539140000000     0.0465315  
H506     H      0.720240000000     0.470320000000     0.076390000000     0.0462344  
H507     H      0.762950000000     0.482900000000     0.030660000000     0.100624   
H508     H      0.665060000000     0.493760000000     0.073130000000     0.0447464  
H509     H      0.659500000000     0.470610000000     0.537130000000     0.0517174  
H510     H      0.620670000000     0.459450000000     0.598650000000     0.100682   
H511     H      0.687860000000     0.321760000000     0.546280000000     0.0455034  
H512     H      0.711300000000     0.310960000000     0.080110000000     0.0276195  
H513     H      0.710910000000     0.211950000000     0.019100000000     0.0381651  
H514     H      0.747890000000     0.226390000000     0.504970000000     0.0356221  
H515     H      0.742910000000     0.278970000000     0.040110000000     0.0451271  
H516     H      0.715410000000     0.276510000000     0.508420000000     0.0448313  
H517     H      0.750510000000     0.228090000000     0.572660000000     0.102409   
H518     H      0.673020000000     0.259040000000     0.541880000000     0.0538898  
H519     H      0.698480000000     0.250400000000     0.074390000000     0.0496508  
H520     H      0.664810000000     0.292450000000     0.108400000000     0.100833   
H521     H      0.847620000000     0.579200000000     0.412400000000     0.0449728  
H522     H      0.848150000000     0.113430000000     0.386160000000     0.0273685  
H523     H      0.945420000000     0.057880000000     0.377650000000     0.0433006  
H524     H      0.932180000000     0.548960000000     0.340640000000     0.0334303  
H525     H      0.883010000000     0.082990000000     0.348980000000     0.0430757  
H526     H      0.887100000000     0.547380000000     0.375460000000     0.0423336  
H527     H      0.928990000000     0.619660000000     0.340090000000     0.102281   
H528     H      0.905760000000     0.583840000000     0.418690000000     0.0548982  
H529     H      0.905970000000     0.120510000000     0.392330000000     0.053219   
H530     H      0.865200000000     0.151980000000     0.427090000000     0.102061   
H531     H      0.725040000000     0.614730000000     0.436220000000     0.043073   
H532     H      0.736490000000     0.103590000000     0.396520000000     0.0279588  
H533     H      0.657420000000     0.034980000000     0.388330000000     0.0424453  
H534     H      0.655450000000     0.531970000000     0.430290000000     0.0274775  
H535     H      0.676430000000     0.093570000000     0.390310000000     0.0526438  
H536     H      0.668460000000     0.595930000000     0.431890000000     0.0494656  
H537     H      0.609950000000     0.565820000000     0.431750000000     0.100804   
H538     H      0.708460000000     0.552230000000     0.443280000000     0.053161   
H539     H      0.715770000000     0.046310000000     0.402250000000     0.046283   
H540     H      0.775600000000     0.064130000000     0.416210000000     0.100494   
H541     H      0.728270000000     0.575860000000     0.151050000000     0.0325196  
H542     H      0.732980000000     0.121140000000     0.151840000000     0.041184   
H543     H      0.644250000000     0.131070000000     0.204860000000     0.0368035  
H544     H      0.635320000000     0.587490000000     0.195440000000     0.0390017  
H545     H      0.701110000000     0.119540000000     0.203690000000     0.0455086  
H546     H      0.694350000000     0.574350000000     0.199390000000     0.0462134  
H547     H      0.673910000000     0.589530000000     0.251900000000     0.100908   
H548     H      0.669160000000     0.583960000000     0.147660000000     0.0445238  
H549     H      0.675120000000     0.129320000000     0.151270000000     0.0475287  
H550     H      0.694760000000     0.094920000000     0.098270000000     0.100717   
H551     H      0.980080000000     0.128310000000     0.197250000000     0.0393647  
H552     H      0.964950000000     0.590430000000     0.215880000000     0.0383074  
H553     H      0.878770000000     0.603130000000     0.156280000000     0.0371224  
H554     H      0.886250000000     0.148220000000     0.158360000000     0.0344554  
H555     H      0.933540000000     0.588720000000     0.161930000000     0.0447615  
H556     H      0.946160000000     0.131530000000     0.152600000000     0.0446142  
H557     H      0.921390000000     0.128040000000     0.106090000000     0.100582   
H558     H      0.923570000000     0.153510000000     0.201920000000     0.0461299  
H559     H      0.910970000000     0.610780000000     0.212850000000     0.0449542  
H560     H      0.947460000000     0.649930000000     0.253020000000     0.102847   
H561     H      0.526580000000     0.131590000000     0.448660000000     0.0408051  
H562     H      0.567650000000     0.139600000000     0.443160000000     0.0385066  
H563     H      0.043830000000     0.231070000000     0.509410000000     0.0412151  
H564     H      0.080870000000     0.210850000000     0.517400000000     0.0379829  
H565     H      0.562430000000     0.222260000000     0.449340000000     0.0481069  
H566     H      0.591660000000     0.193210000000     0.463860000000     0.0463951  
H567     H      0.597310000000     0.263090000000     0.473070000000     0.101732   
H568     H      0.042340000000     0.163950000000     0.494130000000     0.0423812  
H569     H      0.015690000000     0.191020000000     0.473170000000     0.0467108  
H570     H      0.029240000000     0.195610000000     0.413230000000     0.101954   
H571     H      0.529400000000     0.445260000000     0.463150000000     0.0425221  
H572     H      0.559900000000     0.476570000000     0.459290000000     0.0355311  
H573     H      0.018980000000     0.439830000000     0.363340000000     0.0245863  
H574     H      0.002000000000     0.481160000000     0.360340000000     0.0379296  
H575     H      0.530400000000     0.497000000000     0.408470000000     0.0605401  
H576     H      0.502710000000     0.463070000000     0.413700000000     0.0421079  
H577     H      0.567780000000     0.458940000000     0.344590000000     0.101306   
H578     H      0.046510000000     0.422010000000     0.411850000000     0.0476887  
H579     H      0.074600000000     0.456000000000     0.408030000000     0.0503799  
H580     H      0.095360000000     0.420910000000     0.451750000000     0.102144   
H581     H      0.537090000000     0.460290000000     0.140720000000     0.0444811  
H582     H      0.503200000000     0.486150000000     0.132840000000     0.0332476  
H583     H      0.010640000000     0.515870000000     0.234630000000     0.0400094  
H584     H      0.016370000000     0.471620000000     0.242150000000     0.0258292  
H585     H      0.537830000000     0.512490000000     0.185290000000     0.0521117  
H586     H      0.556090000000     0.471950000000     0.193080000000     0.0491959  
H587     H      0.572400000000     0.477740000000     0.252390000000     0.102475   
H588     H      0.003620000000     0.445300000000     0.193250000000     0.0468712  
H589     H      0.984660000000     0.485120000000     0.184590000000     0.0471873  
H590     H      0.974300000000     0.427370000000     0.147940000000     0.102097   
H591     H      0.587150000000     0.306090000000     0.177850000000     0.044393   
H592     H      0.067190000000     0.317310000000     0.214650000000     0.0261246  
H593     H      0.068290000000     0.198070000000     0.203160000000     0.0400407  
H594     H      0.105390000000     0.198110000000     0.222170000000     0.0367829  
H595     H      0.099700000000     0.263440000000     0.228950000000     0.0450765  
H596     H      0.605910000000     0.245320000000     0.188520000000     0.0464337  
H597     H      0.562800000000     0.232340000000     0.261450000000     0.101742   
H598     H      0.052090000000     0.253950000000     0.175140000000     0.057316   
H599     H      0.040100000000     0.263530000000     0.214550000000     0.0490145  
H600     H      0.019460000000     0.327540000000     0.187090000000     0.100582   
H601     H      0.970080000000     0.444270000000     0.497220000000     0.0430453  
H602     H      0.929630000000     0.434450000000     0.988460000000     0.0303017  
H603     H      0.898340000000     0.513010000000     0.053700000000     0.0392732  
H604     H      0.938600000000     0.521770000000     0.563310000000     0.0278693  
H605     H      0.914470000000     0.496770000000     0.999370000000     0.0563622  
H606     H      0.954690000000     0.506660000000     0.508710000000     0.0498394  
H607     H      0.938990000000     0.571520000000     0.532100000000     0.102881   
H608     H      0.954120000000     0.462510000000     0.551210000000     0.0578512  
H609     H      0.914000000000     0.452590000000     0.042110000000     0.0479921  
H610     H      0.930910000000     0.386330000000     0.021880000000     0.100757   
H611     H      0.884760000000     0.237510000000     0.543190000000     0.0448705  
H612     H      0.874910000000     0.274140000000     0.066880000000     0.0293737  
H613     H      0.956090000000     0.257330000000     0.125010000000     0.0393752  
H614     H      0.955580000000     0.212520000000     0.615830000000     0.0257253  
H615     H      0.937170000000     0.272470000000     0.072770000000     0.0619514  
H616     H      0.941930000000     0.229320000000     0.559070000000     0.054624   
H617     H      0.004490000000     0.217600000000     0.593410000000     0.0979373  
H618     H      0.901920000000     0.208750000000     0.595610000000     0.0555366  
H619     H      0.897980000000     0.250070000000     0.113190000000     0.0460441  
H620     H      0.836160000000     0.241630000000     0.095040000000     0.101606   
H621     H      0.675160000000     0.439650000000     0.601430000000     0.0280589  
H622     H      0.670020000000     0.415700000000     0.065740000000     0.0454779  
H623     H      0.704510000000     0.506300000000     0.014110000000     0.0334053  
H624     H      0.709280000000     0.527050000000     0.551310000000     0.0422935  
H625     H      0.714280000000     0.449590000000     0.039140000000     0.0462665  
H626     H      0.720240000000     0.470270000000     0.576410000000     0.0462347  
H627     H      0.762960000000     0.482890000000     0.530720000000     0.10095    
H628     H      0.665080000000     0.493730000000     0.573170000000     0.0449172  
H629     H      0.659500000000     0.470600000000     0.037110000000     0.0512558  
H630     H      0.620670000000     0.459480000000     0.098650000000     0.100616   
H631     H      0.687900000000     0.321790000000     0.046280000000     0.0452586  
H632     H      0.711260000000     0.310930000000     0.580110000000     0.0276793  
H633     H      0.710920000000     0.211940000000     0.519070000000     0.0385951  
H634     H      0.747880000000     0.226390000000     0.004970000000     0.0350915  
H635     H      0.742890000000     0.278960000000     0.540100000000     0.0453172  
H636     H      0.715420000000     0.276520000000     0.008430000000     0.0443594  
H637     H      0.750510000000     0.228090000000     0.072670000000     0.102438   
H638     H      0.673030000000     0.259070000000     0.041910000000     0.053609   
H639     H      0.698460000000     0.250370000000     0.574370000000     0.0497414  
H640     H      0.664780000000     0.292420000000     0.608400000000     0.100871   
H641     H      0.847590000000     0.579270000000     0.912360000000     0.0450563  
H642     H      0.848140000000     0.113510000000     0.886140000000     0.0274462  
H643     H      0.945400000000     0.057940000000     0.877640000000     0.0434268  
H644     H      0.932160000000     0.549020000000     0.840630000000     0.0334737  
H645     H      0.883000000000     0.083070000000     0.848960000000     0.0430704  
H646     H      0.887080000000     0.547440000000     0.875440000000     0.0424352  
H647     H      0.928990000000     0.619720000000     0.840100000000     0.10235    
H648     H      0.905730000000     0.583890000000     0.918680000000     0.0552656  
H649     H      0.905970000000     0.120560000000     0.892330000000     0.053359   
H650     H      0.865190000000     0.152040000000     0.927090000000     0.102291   
H651     H      0.725010000000     0.614750000000     0.936220000000     0.043391   
H652     H      0.736460000000     0.103630000000     0.896510000000     0.0280601  
H653     H      0.657410000000     0.034980000000     0.888340000000     0.042508   
H654     H      0.655440000000     0.531990000000     0.930300000000     0.0278412  
H655     H      0.676410000000     0.093580000000     0.890310000000     0.0527215  
H656     H      0.668440000000     0.595940000000     0.931890000000     0.0497645  
H657     H      0.609930000000     0.565820000000     0.931760000000     0.101109   
H658     H      0.708450000000     0.552260000000     0.943280000000     0.0536691  
H659     H      0.715750000000     0.046330000000     0.902250000000     0.0464474  
H660     H      0.775590000000     0.064180000000     0.916190000000     0.100695   
H661     H      0.728280000000     0.575860000000     0.651070000000     0.0325142  
H662     H      0.732990000000     0.121140000000     0.651850000000     0.0411948  
H663     H      0.644260000000     0.131090000000     0.704870000000     0.0368082  
H664     H      0.635320000000     0.587500000000     0.695450000000     0.0390262  
H665     H      0.701120000000     0.119550000000     0.703700000000     0.0455004  
H666     H      0.694350000000     0.574360000000     0.699410000000     0.0462335  
H667     H      0.673910000000     0.589540000000     0.751910000000     0.100979   
H668     H      0.669170000000     0.583970000000     0.647670000000     0.0445721  
H669     H      0.675140000000     0.129330000000     0.651280000000     0.0475885  
H670     H      0.694770000000     0.094910000000     0.598280000000     0.100784   
H671     H      0.980080000000     0.128370000000     0.697250000000     0.0393428  
H672     H      0.964960000000     0.590490000000     0.715880000000     0.0383038  
H673     H      0.878780000000     0.603200000000     0.656290000000     0.0371126  
H674     H      0.886260000000     0.148290000000     0.658360000000     0.0344533  
H675     H      0.933550000000     0.588780000000     0.661930000000     0.0447848  
H676     H      0.946160000000     0.131600000000     0.652610000000     0.0446634  
H677     H      0.921390000000     0.128120000000     0.606100000000     0.10071    
H678     H      0.923580000000     0.153570000000     0.701920000000     0.0461462  
H679     H      0.910980000000     0.610840000000     0.712850000000     0.0449537  
H680     H      0.947480000000     0.649990000000     0.753030000000     0.102879   
H681     H      0.526660000000     0.131600000000     0.948660000000     0.0411794  
H682     H      0.567720000000     0.139620000000     0.943140000000     0.0387497  
H683     H      0.043940000000     0.231040000000     0.009450000000     0.0381724  
H684     H      0.081000000000     0.210840000000     0.017390000000     0.0349362  
H685     H      0.562490000000     0.222290000000     0.949350000000     0.0486859  
H686     H      0.591730000000     0.193230000000     0.963840000000     0.0471938  
H687     H      0.597380000000     0.263110000000     0.973070000000     0.102319   
H688     H      0.042420000000     0.163960000000     0.994140000000     0.0430488  
H689     H      0.015760000000     0.191030000000     0.973200000000     0.0471817  
H690     H      0.029280000000     0.195630000000     0.913250000000     0.102048   
H691     H      0.529390000000     0.445270000000     0.963150000000     0.0430167  
H692     H      0.559890000000     0.476580000000     0.959290000000     0.0359475  
H693     H      0.018970000000     0.439850000000     0.863320000000     0.0246824  
H694     H      0.001990000000     0.481180000000     0.860340000000     0.0380058  
H695     H      0.530380000000     0.497020000000     0.908480000000     0.0606608  
H696     H      0.502690000000     0.463090000000     0.913700000000     0.0422911  
H697     H      0.567760000000     0.458960000000     0.844590000000     0.101367   
H698     H      0.046500000000     0.422020000000     0.911830000000     0.0478586  
H699     H      0.074590000000     0.456010000000     0.908020000000     0.0504869  
H700     H      0.095340000000     0.420910000000     0.951720000000     0.102517   
H701     H      0.537090000000     0.460300000000     0.640710000000     0.0445368  
H702     H      0.503220000000     0.486160000000     0.632830000000     0.0333161  
H703     H      0.010640000000     0.515910000000     0.734610000000     0.039985   
H704     H      0.016360000000     0.471660000000     0.742150000000     0.0258183  
H705     H      0.537840000000     0.512500000000     0.685280000000     0.0521667  
H706     H      0.556080000000     0.471960000000     0.693080000000     0.0492321  
H707     H      0.572390000000     0.477760000000     0.752390000000     0.102525   
H708     H      0.003610000000     0.445340000000     0.693250000000     0.0469059  
H709     H      0.984660000000     0.485160000000     0.684590000000     0.04722    
H710     H      0.974290000000     0.427400000000     0.647940000000     0.102093   
H711     H      0.587140000000     0.306110000000     0.677850000000     0.0443972  
H712     H      0.067190000000     0.317340000000     0.714660000000     0.0261371  
H713     H      0.068300000000     0.198100000000     0.703160000000     0.0400257  
H714     H      0.105400000000     0.198140000000     0.722170000000     0.0367664  
H715     H      0.099710000000     0.263470000000     0.728950000000     0.0451477  
H716     H      0.605910000000     0.245340000000     0.688520000000     0.0464584  
H717     H      0.562810000000     0.232360000000     0.761450000000     0.10182    
H718     H      0.052090000000     0.253980000000     0.675150000000     0.0573253  
H719     H      0.040100000000     0.263560000000     0.714570000000     0.0489973  
H720     H      0.019460000000     0.327580000000     0.687110000000     0.100547   
H721     H      0.969890000000     0.944040000000     0.997380000000     0.0464967  
H722     H      0.929440000000     0.934150000000     0.488690000000     0.0270531  
H723     H      0.898020000000     0.012660000000     0.553920000000     0.0396862  
H724     H      0.938250000000     0.021360000000     0.063600000000     0.0275663  
H725     H      0.914280000000     0.996500000000     0.499640000000     0.0535481  
H726     H      0.954500000000     0.006370000000     0.008990000000     0.0500136  
H727     H      0.938810000000     0.071150000000     0.032450000000     0.102526   
H728     H      0.953890000000     0.962170000000     0.051430000000     0.0571658  
H729     H      0.913770000000     0.952240000000     0.542320000000     0.0487996  
H730     H      0.930850000000     0.886020000000     0.522100000000     0.101268   
H731     H      0.884840000000     0.737630000000     0.043620000000     0.0444722  
H732     H      0.875010000000     0.774190000000     0.567440000000     0.0295469  
H733     H      0.956310000000     0.757210000000     0.625310000000     0.0393633  
H734     H      0.955890000000     0.712340000000     0.115960000000     0.0256911  
H735     H      0.937270000000     0.772480000000     0.573160000000     0.062161   
H736     H      0.942070000000     0.729340000000     0.059290000000     0.0543437  
H737     H      0.004750000000     0.717520000000     0.093460000000     0.0977602  
H738     H      0.902170000000     0.708600000000     0.095850000000     0.0555715  
H739     H      0.898170000000     0.749940000000     0.613620000000     0.0460036  
H740     H      0.836320000000     0.741560000000     0.595550000000     0.10157    
H741     H      0.674920000000     0.940560000000     0.102000000000     0.0279817  
H742     H      0.669960000000     0.915940000000     0.566600000000     0.0455525  
H743     H      0.704260000000     0.005930000000     0.513940000000     0.0339282  
H744     H      0.708890000000     0.027250000000     0.050770000000     0.0422729  
H745     H      0.714130000000     0.949600000000     0.539660000000     0.0465389  
H746     H      0.719950000000     0.970930000000     0.076650000000     0.046275   
H747     H      0.762630000000     0.982850000000     0.030510000000     0.100569   
H748     H      0.664710000000     0.994110000000     0.072960000000     0.0447984  
H749     H      0.659300000000     0.970380000000     0.537260000000     0.051857   
H750     H      0.620390000000     0.959810000000     0.599030000000     0.10067    
H751     H      0.688020000000     0.821880000000     0.546410000000     0.0455256  
H752     H      0.711470000000     0.811080000000     0.080230000000     0.0276579  
H753     H      0.711030000000     0.712060000000     0.019210000000     0.0381523  
H754     H      0.748020000000     0.726470000000     0.505080000000     0.0356834  
H755     H      0.743070000000     0.779060000000     0.040230000000     0.0451341  
H756     H      0.715570000000     0.776620000000     0.508550000000     0.0448188  
H757     H      0.750630000000     0.728170000000     0.572780000000     0.102405   
H758     H      0.673170000000     0.759170000000     0.542010000000     0.0538577  
H759     H      0.698630000000     0.750520000000     0.074510000000     0.0496834  
H760     H      0.664980000000     0.792510000000     0.108510000000     0.100848   
H761     H      0.848960000000     0.077790000000     0.412840000000     0.045239   
H762     H      0.847900000000     0.614560000000     0.385920000000     0.027156   
H763     H      0.945300000000     0.558660000000     0.379310000000     0.0431185  
H764     H      0.931860000000     0.048830000000     0.338980000000     0.0331297  
H765     H      0.883150000000     0.583340000000     0.349770000000     0.0431601  
H766     H      0.887280000000     0.046980000000     0.374570000000     0.0422324  
H767     H      0.928930000000     0.119290000000     0.338810000000     0.102149   
H768     H      0.907000000000     0.083710000000     0.417430000000     0.0548358  
H769     H      0.906030000000     0.620700000000     0.393630000000     0.0532767  
H770     H      0.864230000000     0.653010000000     0.427240000000     0.102073   
H771     H      0.725340000000     0.115080000000     0.435900000000     0.0430153  
H772     H      0.736300000000     0.603600000000     0.396790000000     0.0280309  
H773     H      0.657610000000     0.534480000000     0.388160000000     0.0424182  
H774     H      0.655250000000     0.032760000000     0.430470000000     0.027496   
H775     H      0.676300000000     0.593180000000     0.390460000000     0.052603   
H776     H      0.668620000000     0.096630000000     0.431720000000     0.0495021  
H777     H      0.609910000000     0.066850000000     0.431730000000     0.100858   
H778     H      0.708380000000     0.052760000000     0.443350000000     0.0532657  
H779     H      0.715910000000     0.546130000000     0.402150000000     0.0462585  
H780     H      0.775540000000     0.564130000000     0.416320000000     0.10047    
H781     H      0.728230000000     0.075800000000     0.151010000000     0.0324838  
H782     H      0.732910000000     0.621210000000     0.151940000000     0.0411627  
H783     H      0.644150000000     0.630800000000     0.204960000000     0.0368097  
H784     H      0.635330000000     0.087760000000     0.195410000000     0.039016   
H785     H      0.701030000000     0.619410000000     0.203790000000     0.0455055  
H786     H      0.694330000000     0.074490000000     0.199370000000     0.0462578  
H787     H      0.673950000000     0.089870000000     0.251870000000     0.100916   
H788     H      0.669150000000     0.084060000000     0.147630000000     0.0445308  
H789     H      0.675040000000     0.629240000000     0.151380000000     0.0475141  
H790     H      0.694760000000     0.595060000000     0.098320000000     0.100705   
H791     H      0.979980000000     0.627890000000     0.197530000000     0.039391   
H792     H      0.965090000000     0.090880000000     0.215690000000     0.0383749  
H793     H      0.878780000000     0.103430000000     0.156180000000     0.0371219  
H794     H      0.886210000000     0.647920000000     0.158510000000     0.0345011  
H795     H      0.933530000000     0.088980000000     0.161820000000     0.0447512  
H796     H      0.946120000000     0.631310000000     0.152830000000     0.0446386  
H797     H      0.921410000000     0.627740000000     0.106250000000     0.100658   
H798     H      0.923480000000     0.653120000000     0.202170000000     0.0461467  
H799     H      0.911090000000     0.111200000000     0.212730000000     0.0449313  
H800     H      0.947660000000     0.150510000000     0.252710000000     0.102824   
H801     H      0.528720000000     0.631170000000     0.448650000000     0.0411093  
H802     H      0.569600000000     0.640010000000     0.442860000000     0.0380557  
H803     H      0.044350000000     0.731000000000     0.509490000000     0.0412864  
H804     H      0.081470000000     0.710970000000     0.517480000000     0.0379878  
H805     H      0.563400000000     0.722430000000     0.449340000000     0.0479691  
H806     H      0.592950000000     0.693760000000     0.463840000000     0.0462842  
H807     H      0.598020000000     0.763530000000     0.473180000000     0.101751   
H808     H      0.043240000000     0.663850000000     0.494200000000     0.0423561  
H809     H      0.016410000000     0.690750000000     0.473290000000     0.0467479  
H810     H      0.029970000000     0.695490000000     0.413310000000     0.101961   
H811     H      0.529590000000     0.945520000000     0.463350000000     0.0425507  
H812     H      0.560060000000     0.976870000000     0.459590000000     0.0354951  
H813     H      0.019250000000     0.940070000000     0.363480000000     0.0246246  
H814     H      0.002230000000     0.981380000000     0.360490000000     0.0380047  
H815     H      0.530710000000     0.997340000000     0.408680000000     0.0604731  
H816     H      0.503020000000     0.963400000000     0.413880000000     0.0421438  
H817     H      0.568210000000     0.959400000000     0.344890000000     0.101258   
H818     H      0.046700000000     0.922230000000     0.411980000000     0.0476789  
H819     H      0.074810000000     0.956220000000     0.408260000000     0.0503213  
H820     H      0.095490000000     0.921100000000     0.451980000000     0.102158   
H821     H      0.537090000000     0.960390000000     0.140900000000     0.0444714  
H822     H      0.503150000000     0.986130000000     0.132920000000     0.0332764  
H823     H      0.010600000000     0.016210000000     0.234560000000     0.0400627  
H824     H      0.016210000000     0.971970000000     0.242210000000     0.025859   
H825     H      0.537800000000     0.012680000000     0.185300000000     0.0521222  
H826     H      0.556040000000     0.972180000000     0.193240000000     0.0492275  
H827     H      0.572300000000     0.978120000000     0.252510000000     0.102512   
H828     H      0.003520000000     0.945460000000     0.193380000000     0.046886   
H829     H      0.984580000000     0.985260000000     0.184610000000     0.0472094  
H830     H      0.974330000000     0.927270000000     0.148130000000     0.102098   
H831     H      0.587340000000     0.805650000000     0.177900000000     0.0444329  
H832     H      0.067350000000     0.817050000000     0.214760000000     0.0261226  
H833     H      0.068110000000     0.697820000000     0.203180000000     0.0399676  
H834     H      0.105190000000     0.697730000000     0.222220000000     0.0368287  
H835     H      0.099670000000     0.763070000000     0.229060000000     0.0451081  
H836     H      0.605880000000     0.744760000000     0.188500000000     0.0464269  
H837     H      0.562600000000     0.731890000000     0.261350000000     0.10178    
H838     H      0.052080000000     0.753780000000     0.175200000000     0.0572549  
H839     H      0.040080000000     0.763370000000     0.214610000000     0.04896    
H840     H      0.019610000000     0.827420000000     0.187240000000     0.100511   
H841     H      0.969880000000     0.944060000000     0.497390000000     0.0430323  
H842     H      0.929450000000     0.934130000000     0.988670000000     0.0303362  
H843     H      0.898020000000     0.012650000000     0.053870000000     0.0392759  
H844     H      0.938260000000     0.021360000000     0.563640000000     0.0278622  
H845     H      0.914300000000     0.996480000000     0.999600000000     0.0564325  
H846     H      0.954490000000     0.006380000000     0.509020000000     0.0499098  
H847     H      0.938820000000     0.071150000000     0.532490000000     0.102903   
H848     H      0.953890000000     0.962170000000     0.551450000000     0.0578483  
H849     H      0.913780000000     0.952230000000     0.042290000000     0.0479081  
H850     H      0.930870000000     0.886000000000     0.022070000000     0.10068    
H851     H      0.884830000000     0.737650000000     0.543610000000     0.0448275  
H852     H      0.875050000000     0.774170000000     0.067470000000     0.0293523  
H853     H      0.956370000000     0.757160000000     0.125290000000     0.0393527  
H854     H      0.955830000000     0.712380000000     0.616010000000     0.0257334  
H855     H      0.937300000000     0.772450000000     0.073150000000     0.0620008  
H856     H      0.942040000000     0.729350000000     0.559320000000     0.054645   
H857     H      0.004710000000     0.717540000000     0.593520000000     0.0979009  
H858     H      0.902120000000     0.708640000000     0.595870000000     0.0555535  
H859     H      0.898230000000     0.749890000000     0.113620000000     0.0460611  
H860     H      0.836330000000     0.741560000000     0.095570000000     0.101521   
H861     H      0.674920000000     0.940500000000     0.602000000000     0.0279723  
H862     H      0.669970000000     0.915960000000     0.066620000000     0.0454274  
H863     H      0.704260000000     0.005910000000     0.013890000000     0.0332894  
H864     H      0.708910000000     0.027230000000     0.550840000000     0.0424124  
H865     H      0.714140000000     0.949620000000     0.039660000000     0.0463161  
H866     H      0.719960000000     0.970880000000     0.576670000000     0.0462342  
H867     H      0.762640000000     0.982840000000     0.530560000000     0.100938   
H868     H      0.664720000000     0.994080000000     0.573000000000     0.0449467  
H869     H      0.659300000000     0.970370000000     0.037230000000     0.0513799  
H870     H      0.620390000000     0.959840000000     0.099030000000     0.100589   
H871     H      0.688060000000     0.821910000000     0.046410000000     0.045275   
H872     H      0.711440000000     0.811050000000     0.580220000000     0.0277253  
H873     H      0.711050000000     0.712050000000     0.519180000000     0.0386273  
H874     H      0.748010000000     0.726470000000     0.005080000000     0.0351273  
H875     H      0.743050000000     0.779050000000     0.540220000000     0.0453317  
H876     H      0.715570000000     0.776630000000     0.008560000000     0.0443291  
H877     H      0.750640000000     0.728170000000     0.072790000000     0.102371   
H878     H      0.673180000000     0.759200000000     0.042030000000     0.0535932  
H879     H      0.698610000000     0.750490000000     0.574490000000     0.0497379  
H880     H      0.664960000000     0.792480000000     0.608520000000     0.1008     
H881     H      0.848930000000     0.077860000000     0.912810000000     0.045375   
H882     H      0.847890000000     0.614640000000     0.885910000000     0.0272127  
H883     H      0.945280000000     0.558710000000     0.879300000000     0.043264   
H884     H      0.931840000000     0.048890000000     0.838970000000     0.0331665  
H885     H      0.883150000000     0.583410000000     0.849750000000     0.0431505  
H886     H      0.887250000000     0.047040000000     0.874550000000     0.0423281  
H887     H      0.928930000000     0.119350000000     0.838820000000     0.102247   
H888     H      0.906980000000     0.083760000000     0.917430000000     0.0551548  
H889     H      0.906020000000     0.620750000000     0.893630000000     0.0534401  
H890     H      0.864220000000     0.653070000000     0.927240000000     0.10237    
H891     H      0.725310000000     0.115110000000     0.935890000000     0.043341   
H892     H      0.736260000000     0.603640000000     0.896780000000     0.0280991  
H893     H      0.657590000000     0.534480000000     0.888170000000     0.0425049  
H894     H      0.655240000000     0.032780000000     0.930480000000     0.0278436  
H895     H      0.676270000000     0.593190000000     0.890460000000     0.0526551  
H896     H      0.668600000000     0.096650000000     0.931720000000     0.0498202  
H897     H      0.609890000000     0.066850000000     0.931730000000     0.101184   
H898     H      0.708370000000     0.052790000000     0.943350000000     0.0537855  
H899     H      0.715890000000     0.546160000000     0.902150000000     0.0464261  
H900     H      0.775520000000     0.564180000000     0.916300000000     0.100646   
H901     H      0.728240000000     0.075800000000     0.651030000000     0.0324765  
H902     H      0.732920000000     0.621210000000     0.651950000000     0.0411719  
H903     H      0.644160000000     0.630810000000     0.704980000000     0.0368382  
H904     H      0.635340000000     0.087770000000     0.695420000000     0.0390303  
H905     H      0.701040000000     0.619420000000     0.703800000000     0.0454926  
H906     H      0.694340000000     0.074490000000     0.699390000000     0.0462225  
H907     H      0.673950000000     0.089880000000     0.751880000000     0.100942   
H908     H      0.669150000000     0.084060000000     0.647650000000     0.0445646  
H909     H      0.675050000000     0.629240000000     0.651390000000     0.0475514  
H910     H      0.694770000000     0.595040000000     0.598340000000     0.10081    
H911     H      0.979990000000     0.627950000000     0.697540000000     0.03941    
H912     H      0.965100000000     0.090930000000     0.715690000000     0.0383382  
H913     H      0.878790000000     0.103500000000     0.656190000000     0.0371222  
H914     H      0.886230000000     0.647990000000     0.658510000000     0.0344845  
H915     H      0.933540000000     0.089050000000     0.661820000000     0.0447681  
H916     H      0.946130000000     0.631380000000     0.652840000000     0.0446777  
H917     H      0.921420000000     0.627810000000     0.606260000000     0.100714   
H918     H      0.923490000000     0.653180000000     0.702180000000     0.0461454  
H919     H      0.911100000000     0.111260000000     0.712730000000     0.0449541  
H920     H      0.947670000000     0.150560000000     0.752710000000     0.102883   
H921     H      0.528800000000     0.631180000000     0.948650000000     0.0415013  
H922     H      0.569670000000     0.640030000000     0.942850000000     0.0383105  
H923     H      0.044450000000     0.730970000000     0.009530000000     0.0382177  
H924     H      0.081600000000     0.710950000000     0.017460000000     0.0349105  
H925     H      0.563460000000     0.722450000000     0.949350000000     0.0486096  
H926     H      0.593020000000     0.693780000000     0.963830000000     0.0471382  
H927     H      0.598090000000     0.763550000000     0.973180000000     0.102338   
H928     H      0.043320000000     0.663850000000     0.994200000000     0.0430267  
H929     H      0.016480000000     0.690760000000     0.973320000000     0.0472134  
H930     H      0.030020000000     0.695510000000     0.913330000000     0.10213    
H931     H      0.529580000000     0.945520000000     0.963350000000     0.0430471  
H932     H      0.560050000000     0.976880000000     0.959590000000     0.0359195  
H933     H      0.019230000000     0.940090000000     0.863470000000     0.0246847  
H934     H      0.002210000000     0.981400000000     0.860490000000     0.0380259  
H935     H      0.530690000000     0.997360000000     0.908690000000     0.0605898  
H936     H      0.503000000000     0.963420000000     0.913880000000     0.042307   
H937     H      0.568190000000     0.959420000000     0.844890000000     0.101419   
H938     H      0.046690000000     0.922240000000     0.911960000000     0.0478589  
H939     H      0.074790000000     0.956230000000     0.908250000000     0.0504478  
H940     H      0.095480000000     0.921100000000     0.951960000000     0.102519   
H941     H      0.537090000000     0.960390000000     0.640890000000     0.0445161  
H942     H      0.503160000000     0.986140000000     0.632910000000     0.0333504  
H943     H      0.010600000000     0.016250000000     0.734550000000     0.0400472  
H944     H      0.016200000000     0.972010000000     0.742210000000     0.0258537  
H945     H      0.537810000000     0.012700000000     0.685280000000     0.0521179  
H946     H      0.556040000000     0.972190000000     0.693240000000     0.0492098  
H947     H      0.572300000000     0.978150000000     0.752500000000     0.102529   
H948     H      0.003510000000     0.945500000000     0.693380000000     0.0468716  
H949     H      0.984580000000     0.985300000000     0.684610000000     0.0471876  
H950     H      0.974320000000     0.927300000000     0.648140000000     0.102047   
H951     H      0.587330000000     0.805680000000     0.677910000000     0.0444509  
H952     H      0.067350000000     0.817080000000     0.714780000000     0.0261435  
H953     H      0.068110000000     0.697850000000     0.703190000000     0.0399935  
H954     H      0.105200000000     0.697760000000     0.722220000000     0.036832   
H955     H      0.099680000000     0.763100000000     0.729060000000     0.0451239  
H956     H      0.605880000000     0.744790000000     0.688490000000     0.0464261  
H957     H      0.562610000000     0.731920000000     0.761350000000     0.101795   
H958     H      0.052080000000     0.753810000000     0.675210000000     0.0572733  
H959     H      0.040090000000     0.763400000000     0.714630000000     0.0489688  
H960     H      0.019620000000     0.827460000000     0.687260000000     0.100581   
N1       N      0.418210000000     0.555860000000     0.532320000000    -0.217051   
N2       N      0.450700000000     0.401460000000     0.021220000000    -0.215998   
N3       N      0.492390000000     0.239210000000     0.092610000000    -0.217886   
N4       N      0.348690000000     0.229620000000     0.076940000000    -0.21628    
N5       N      0.250170000000     0.505400000000     0.531420000000    -0.21772    
N6       N      0.129270000000     0.439660000000     0.585210000000    -0.216223   
N7       N      0.247280000000     0.212730000000     0.052950000000    -0.216078   
N8       N      0.162430000000     0.304100000000     0.586580000000    -0.215744   
N9       N      0.444860000000     0.099580000000     0.347300000000    -0.214782   
N10      N      0.358640000000     0.627690000000     0.432820000000    -0.217287   
N11      N      0.119910000000     0.564950000000     0.410630000000    -0.216694   
N12      N      0.262820000000     0.580490000000     0.432050000000    -0.216413   
N13      N      0.152230000000     0.596640000000     0.241780000000    -0.215893   
N14      N      0.215920000000     0.100580000000     0.109640000000    -0.216129   
N15      N      0.398720000000     0.124810000000     0.116210000000    -0.217706   
N16      N      0.465520000000     0.133030000000     0.244200000000    -0.21511    
N17      N      0.083560000000     0.258610000000     0.494740000000    -0.217099   
N18      N      0.537320000000     0.168040000000     0.413930000000    -0.216128   
N19      N      0.051010000000     0.479040000000     0.352450000000    -0.215707   
N20      N      0.076340000000     0.427310000000     0.466000000000    -0.216098   
N21      N      0.056680000000     0.500760000000     0.248890000000    -0.216699   
N22      N      0.494490000000     0.433240000000     0.135190000000    -0.215174   
N23      N      0.567310000000     0.209310000000     0.250030000000    -0.215755   
N24      N      0.538560000000     0.317420000000     0.173340000000    -0.215158   
N25      N      0.418200000000     0.555860000000     0.032260000000    -0.217337   
N26      N      0.450690000000     0.401460000000     0.521230000000    -0.21676    
N27      N      0.492350000000     0.239220000000     0.592650000000    -0.217923   
N28      N      0.348660000000     0.229630000000     0.576900000000    -0.216277   
N29      N      0.250170000000     0.505410000000     0.031380000000    -0.217802   
N30      N      0.129280000000     0.439680000000     0.085190000000    -0.216249   
N31      N      0.247270000000     0.212720000000     0.552950000000    -0.216115   
N32      N      0.162460000000     0.304160000000     0.086590000000    -0.215802   
N33      N      0.444860000000     0.099640000000     0.847310000000    -0.214864   
N34      N      0.358620000000     0.627750000000     0.932810000000    -0.217166   
N35      N      0.119900000000     0.564960000000     0.910650000000    -0.216625   
N36      N      0.262810000000     0.580540000000     0.932040000000    -0.216318   
N37      N      0.152230000000     0.596660000000     0.741800000000    -0.215896   
N38      N      0.215920000000     0.100570000000     0.609650000000    -0.216212   
N39      N      0.398720000000     0.124870000000     0.616220000000    -0.217586   
N40      N      0.465520000000     0.133080000000     0.744200000000    -0.215063   
N41      N      0.083640000000     0.258610000000     0.994740000000    -0.216353   
N42      N      0.537370000000     0.168060000000     0.913940000000    -0.215986   
N43      N      0.050990000000     0.479060000000     0.852440000000    -0.215676   
N44      N      0.076330000000     0.427310000000     0.965980000000    -0.216298   
N45      N      0.056670000000     0.500790000000     0.748890000000    -0.216649   
N46      N      0.494490000000     0.433250000000     0.635190000000    -0.215135   
N47      N      0.567320000000     0.209330000000     0.750040000000    -0.215811   
N48      N      0.538560000000     0.317450000000     0.673350000000    -0.215148   
N49      N      0.418040000000     0.055580000000     0.532620000000    -0.217089   
N50      N      0.450680000000     0.901230000000     0.021440000000    -0.216011   
N51      N      0.492640000000     0.739180000000     0.092660000000    -0.21786    
N52      N      0.348880000000     0.729610000000     0.077440000000    -0.21639    
N53      N      0.249920000000     0.005330000000     0.531290000000    -0.21764    
N54      N      0.129090000000     0.939880000000     0.585480000000    -0.216218   
N55      N      0.247430000000     0.712860000000     0.053080000000    -0.216192   
N56      N      0.162560000000     0.804210000000     0.586690000000    -0.215782   
N57      N      0.444990000000     0.599910000000     0.348560000000    -0.214869   
N58      N      0.359690000000     0.126610000000     0.432770000000    -0.217186   
N59      N      0.119910000000     0.065570000000     0.410570000000    -0.216613   
N60      N      0.262920000000     0.080430000000     0.431900000000    -0.216464   
N61      N      0.152290000000     0.096780000000     0.241690000000    -0.215864   
N62      N      0.215910000000     0.600750000000     0.109750000000    -0.216145   
N63      N      0.398720000000     0.624520000000     0.116410000000    -0.217702   
N64      N      0.465350000000     0.632380000000     0.244520000000    -0.21509    
N65      N      0.083960000000     0.758750000000     0.494850000000    -0.21711    
N66      N      0.538600000000     0.667880000000     0.413900000000    -0.216041   
N67      N      0.051240000000     0.979320000000     0.352610000000    -0.215638   
N68      N      0.076440000000     0.927460000000     0.466200000000    -0.216144   
N69      N      0.056590000000     0.001010000000     0.248900000000    -0.216678   
N70      N      0.494560000000     0.933200000000     0.135430000000    -0.215215   
N71      N      0.567130000000     0.708850000000     0.249960000000    -0.215799   
N72      N      0.538790000000     0.817210000000     0.173460000000    -0.215179   
N73      N      0.418030000000     0.055570000000     0.032560000000    -0.217397   
N74      N      0.450670000000     0.901240000000     0.521450000000    -0.216768   
N75      N      0.492600000000     0.739200000000     0.592700000000    -0.217822   
N76      N      0.348850000000     0.729630000000     0.577400000000    -0.216305   
N77      N      0.249920000000     0.005350000000     0.031250000000    -0.217856   
N78      N      0.129090000000     0.939900000000     0.085470000000    -0.216245   
N79      N      0.247420000000     0.712850000000     0.553070000000    -0.216064   
N80      N      0.162590000000     0.804270000000     0.086700000000    -0.215772   
N81      N      0.444980000000     0.599970000000     0.848560000000    -0.214819   
N82      N      0.359670000000     0.126670000000     0.932770000000    -0.217096   
N83      N      0.119890000000     0.065580000000     0.910580000000    -0.216666   
N84      N      0.262900000000     0.080470000000     0.931880000000    -0.216347   
N85      N      0.152290000000     0.096800000000     0.741710000000    -0.215959   
N86      N      0.215910000000     0.600740000000     0.609760000000    -0.216139   
N87      N      0.398730000000     0.624580000000     0.616410000000    -0.217627   
N88      N      0.465360000000     0.632420000000     0.744530000000    -0.215072   
N89      N      0.084040000000     0.758750000000     0.994850000000    -0.216256   
N90      N      0.538660000000     0.667900000000     0.913900000000    -0.216041   
N91      N      0.051230000000     0.979340000000     0.852610000000    -0.21569    
N92      N      0.076430000000     0.927460000000     0.966180000000    -0.216322   
N93      N      0.056580000000     0.001040000000     0.748900000000    -0.216637   
N94      N      0.494550000000     0.933220000000     0.635430000000    -0.21522    
N95      N      0.567140000000     0.708870000000     0.749970000000    -0.21579    
N96      N      0.538780000000     0.817230000000     0.673470000000    -0.215245   
N97      N      0.918610000000     0.556810000000     0.532110000000    -0.217007   
N98      N      0.950540000000     0.402180000000     0.021900000000    -0.216604   
N99      N      0.991790000000     0.240260000000     0.094500000000    -0.211746   
N100     N      0.848420000000     0.230110000000     0.076720000000    -0.216436   
N101     N      0.750500000000     0.505780000000     0.531620000000    -0.217771   
N102     N      0.629140000000     0.439930000000     0.584330000000    -0.216132   
N103     N      0.747310000000     0.212990000000     0.052770000000    -0.216158   
N104     N      0.662860000000     0.304520000000     0.586700000000    -0.215777   
N105     N      0.944130000000     0.100070000000     0.346290000000    -0.214332   
N106     N      0.858520000000     0.627730000000     0.432300000000    -0.217328   
N107     N      0.620560000000     0.562180000000     0.409950000000    -0.216655   
N108     N      0.763160000000     0.579750000000     0.431790000000    -0.216444   
N109     N      0.652560000000     0.595370000000     0.241190000000    -0.215923   
N110     N      0.716120000000     0.100470000000     0.109070000000    -0.216256   
N111     N      0.898960000000     0.125720000000     0.115690000000    -0.217647   
N112     N      0.965590000000     0.135210000000     0.243770000000    -0.215429   
N113     N      0.586250000000     0.258020000000     0.494400000000    -0.216871   
N114     N      0.033570000000     0.169480000000     0.414550000000    -0.215978   
N115     N      0.551220000000     0.477030000000     0.351450000000    -0.215583   
N116     N      0.576080000000     0.426360000000     0.465080000000    -0.215969   
N117     N      0.557900000000     0.498640000000     0.248000000000    -0.216634   
N118     N      0.994410000000     0.434550000000     0.135650000000    -0.209758   
N119     N      0.067550000000     0.211400000000     0.251270000000    -0.215894   
N120     N      0.038850000000     0.319250000000     0.174290000000    -0.215372   
N121     N      0.918610000000     0.556800000000     0.032050000000    -0.217301   
N122     N      0.950530000000     0.402190000000     0.521900000000    -0.217246   
N123     N      0.991750000000     0.240280000000     0.594550000000    -0.21175    
N124     N      0.848390000000     0.230130000000     0.576680000000    -0.216269   
N125     N      0.750490000000     0.505790000000     0.031580000000    -0.217778   
N126     N      0.629140000000     0.439960000000     0.084330000000    -0.216155   
N127     N      0.747300000000     0.212970000000     0.552760000000    -0.21614    
N128     N      0.662890000000     0.304580000000     0.086710000000    -0.215803   
N129     N      0.944120000000     0.100130000000     0.846290000000    -0.214316   
N130     N      0.858500000000     0.627790000000     0.932290000000    -0.217169   
N131     N      0.620540000000     0.562180000000     0.909960000000    -0.216587   
N132     N      0.763140000000     0.579790000000     0.931770000000    -0.216334   
N133     N      0.652570000000     0.595380000000     0.741200000000    -0.215984   
N134     N      0.716130000000     0.100470000000     0.609090000000    -0.216169   
N135     N      0.898970000000     0.125790000000     0.615700000000    -0.217647   
N136     N      0.965600000000     0.135270000000     0.743770000000    -0.215461   
N137     N      0.586320000000     0.258040000000     0.994400000000    -0.216067   
N138     N      0.033610000000     0.169490000000     0.914560000000    -0.215903   
N139     N      0.551200000000     0.477050000000     0.851450000000    -0.215657   
N140     N      0.576070000000     0.426370000000     0.965080000000    -0.2162     
N141     N      0.557900000000     0.498660000000     0.748000000000    -0.216621   
N142     N      0.994400000000     0.434580000000     0.635650000000    -0.209746   
N143     N      0.067560000000     0.211430000000     0.751280000000    -0.215909   
N144     N      0.038850000000     0.319280000000     0.674310000000    -0.215294   
N145     N      0.918410000000     0.056480000000     0.532430000000    -0.217072   
N146     N      0.950470000000     0.901910000000     0.022070000000    -0.216519   
N147     N      0.991990000000     0.740190000000     0.094650000000    -0.211783   
N148     N      0.848580000000     0.730090000000     0.077200000000    -0.216347   
N149     N      0.750210000000     0.005750000000     0.531470000000    -0.217679   
N150     N      0.628950000000     0.940290000000     0.584760000000    -0.216163   
N151     N      0.747430000000     0.713070000000     0.052880000000    -0.216115   
N152     N      0.663040000000     0.804650000000     0.586840000000    -0.215747   
N153     N      0.944160000000     0.600360000000     0.347430000000    -0.214378   
N154     N      0.859600000000     0.126710000000     0.432310000000    -0.217249   
N155     N      0.620510000000     0.063050000000     0.409960000000    -0.216606   
N156     N      0.763240000000     0.079800000000     0.431650000000    -0.21647    
N157     N      0.652610000000     0.095690000000     0.241140000000    -0.215867   
N158     N      0.716120000000     0.600570000000     0.109140000000    -0.216229   
N159     N      0.898980000000     0.625470000000     0.115830000000    -0.217723   
N160     N      0.965430000000     0.634710000000     0.244050000000    -0.215497   
N161     N      0.586930000000     0.758360000000     0.494470000000    -0.216952   
N162     N      0.034250000000     0.669350000000     0.414640000000    -0.216      
N163     N      0.551570000000     0.977440000000     0.351690000000    -0.215521   
N164     N      0.576290000000     0.926680000000     0.465390000000    -0.21605    
N165     N      0.557830000000     0.999030000000     0.248090000000    -0.216692   
N166     N      0.994400000000     0.934500000000     0.135800000000    -0.209791   
N167     N      0.067360000000     0.711110000000     0.251300000000    -0.215856   
N168     N      0.039000000000     0.819120000000     0.174430000000    -0.21529    
N169     N      0.918410000000     0.056470000000     0.032370000000    -0.217291   
N170     N      0.950460000000     0.901920000000     0.522080000000    -0.217259   
N171     N      0.991950000000     0.740210000000     0.594700000000    -0.21164    
N172     N      0.848550000000     0.730110000000     0.577160000000    -0.216285   
N173     N      0.750200000000     0.005770000000     0.031430000000    -0.217739   
N174     N      0.628950000000     0.940320000000     0.084760000000    -0.21617    
N175     N      0.747420000000     0.713050000000     0.552880000000    -0.216044   
N176     N      0.663070000000     0.804700000000     0.086850000000    -0.215773   
N177     N      0.944160000000     0.600420000000     0.847430000000    -0.214398   
N178     N      0.859580000000     0.126760000000     0.932300000000    -0.217027   
N179     N      0.620490000000     0.063050000000     0.909960000000    -0.216698   
N180     N      0.763230000000     0.079840000000     0.931630000000    -0.216371   
N181     N      0.652610000000     0.095700000000     0.741150000000    -0.215954   
N182     N      0.716130000000     0.600560000000     0.609160000000    -0.216231   
N183     N      0.898990000000     0.625530000000     0.615840000000    -0.217682   
N184     N      0.965430000000     0.634760000000     0.744050000000    -0.215469   
N185     N      0.587000000000     0.758380000000     0.994470000000    -0.216153   
N186     N      0.034290000000     0.669370000000     0.914650000000    -0.21592    
N187     N      0.551560000000     0.977460000000     0.851680000000    -0.215695   
N188     N      0.576290000000     0.926700000000     0.965380000000    -0.216279   
N189     N      0.557830000000     0.999060000000     0.748080000000    -0.216695   
N190     N      0.994390000000     0.934530000000     0.635800000000    -0.209752   
N191     N      0.067370000000     0.711140000000     0.751310000000    -0.2158     
N192     N      0.038990000000     0.819150000000     0.674440000000    -0.215373   
O1       O      0.564570000000     0.151320000000     0.251710000000    -0.367363   
O2       O      0.073610000000     0.576900000000     0.387580000000    -0.364546   
O3       O      0.533430000000     0.165210000000     0.361040000000    -0.381026   
O4       O      0.128190000000     0.582630000000     0.287160000000    -0.383876   
O5       O      0.037230000000     0.118990000000     0.389070000000    -0.367318   
O6       O      0.099320000000     0.102380000000     0.247410000000    -0.367658   
O7       O      0.115070000000     0.565990000000     0.357420000000    -0.375709   
O8       O      0.547270000000     0.182080000000     0.292170000000    -0.380893   
O9       O      0.548400000000     0.555060000000     0.255880000000    -0.387616   
O10      O      0.495050000000     0.580580000000     0.352010000000    -0.384027   
O11      O      0.494920000000     0.146700000000     0.286370000000    -0.359957   
O12      O      0.081750000000     0.520860000000     0.332370000000    -0.35823    
O13      O      0.036120000000     0.534520000000     0.354370000000    -0.381228   
O14      O      0.514440000000     0.110910000000     0.250720000000    -0.374761   
O15      O      0.086190000000     0.531440000000     0.282540000000    -0.367202   
O16      O      0.485760000000     0.132680000000     0.332710000000    -0.361157   
O17      O      0.063660000000     0.109310000000     0.317240000000    -0.612611   
O18      O      0.537000000000     0.268500000000     0.083890000000    -0.364509   
O19      O      0.051930000000     0.419510000000     0.513030000000    -0.368906   
O20      O      0.475970000000     0.363210000000     0.051970000000    -0.376897   
O21      O      0.093120000000     0.313080000000     0.509350000000    -0.372488   
O22      O      0.501000000000     0.410230000000     0.536820000000    -0.368257   
O23      O      0.572520000000     0.276790000000     0.542750000000    -0.368849   
O24      O      0.092310000000     0.386600000000     0.499640000000    -0.376483   
O25      O      0.492060000000     0.297020000000     0.087970000000    -0.371697   
O26      O      0.110090000000     0.306980000000     0.093770000000    -0.380679   
O27      O      0.027460000000     0.423340000000     0.095160000000    -0.369384   
O28      O      0.514470000000     0.333910000000     0.128390000000    -0.363573   
O29      O      0.117660000000     0.393380000000     0.555040000000    -0.376158   
O30      O      0.079260000000     0.424010000000     0.576330000000    -0.384389   
O31      O      0.562060000000     0.310830000000     0.125950000000    -0.378141   
O32      O      0.130900000000     0.331670000000     0.551790000000    -0.366816   
O33      O      0.491820000000     0.383820000000     0.108130000000    -0.364525   
O34      O      0.546910000000     0.347270000000     0.552380000000    -0.595775   
O35      O      0.380830000000     0.133940000000     0.067490000000    -0.369682   
O36      O      0.251320000000     0.563260000000     0.527330000000    -0.370946   
O37      O      0.267690000000     0.113640000000     0.102930000000    -0.385179   
O38      O      0.365440000000     0.554100000000     0.524450000000    -0.393399   
O39      O      0.236400000000     0.607840000000     0.061380000000    -0.37172    
O40      O      0.390150000000     0.604170000000     0.024580000000    -0.367258   
O41      O      0.295490000000     0.533160000000     0.521990000000    -0.392692   
O42      O      0.346100000000     0.124070000000     0.105720000000    -0.384625   
O43      O      0.353620000000     0.141630000000     0.483490000000    -0.401448   
O44      O      0.256830000000     0.161570000000     0.529450000000    -0.391859   
O45      O      0.322440000000     0.180750000000     0.086740000000    -0.361103   
O46      O      0.298700000000     0.567840000000     0.469310000000    -0.366135   
O47      O      0.260000000000     0.604210000000     0.480710000000    -0.387414   
O48      O      0.353970000000     0.183630000000     0.044920000000    -0.383881   
O49      O      0.344570000000     0.588310000000     0.469500000000    -0.370761   
O50      O      0.275370000000     0.171990000000     0.077490000000    -0.362914   
O51      O      0.313350000000     0.608590000000     0.040260000000    -0.664598   
O52      O      0.564580000000     0.151340000000     0.751710000000    -0.367335   
O53      O      0.073590000000     0.576910000000     0.887580000000    -0.364382   
O54      O      0.533460000000     0.165240000000     0.861040000000    -0.380832   
O55      O      0.128190000000     0.582650000000     0.787170000000    -0.383909   
O56      O      0.037240000000     0.119010000000     0.889080000000    -0.367279   
O57      O      0.099330000000     0.102410000000     0.747420000000    -0.367807   
O58      O      0.115060000000     0.566010000000     0.857430000000    -0.375594   
O59      O      0.547280000000     0.182100000000     0.792170000000    -0.381041   
O60      O      0.548400000000     0.555080000000     0.755880000000    -0.387626   
O61      O      0.495040000000     0.580620000000     0.852010000000    -0.384042   
O62      O      0.494930000000     0.146740000000     0.786370000000    -0.360072   
O63      O      0.081740000000     0.520880000000     0.832370000000    -0.358146   
O64      O      0.036100000000     0.534540000000     0.854360000000    -0.381082   
O65      O      0.514440000000     0.110950000000     0.750720000000    -0.374822   
O66      O      0.086190000000     0.531470000000     0.782540000000    -0.367171   
O67      O      0.485760000000     0.132720000000     0.832720000000    -0.361264   
O68      O      0.063650000000     0.109330000000     0.817250000000    -0.612747   
O69      O      0.536960000000     0.268500000000     0.583920000000    -0.36441    
O70      O      0.051930000000     0.419510000000     0.013020000000    -0.371603   
O71      O      0.475960000000     0.363210000000     0.551980000000    -0.376805   
O72      O      0.093160000000     0.313090000000     0.009350000000    -0.372816   
O73      O      0.501010000000     0.410230000000     0.036820000000    -0.368577   
O74      O      0.572570000000     0.276810000000     0.042740000000    -0.368847   
O75      O      0.092310000000     0.386600000000     0.999620000000    -0.375315   
O76      O      0.492030000000     0.297030000000     0.588000000000    -0.371583   
O77      O      0.110060000000     0.306950000000     0.593770000000    -0.380759   
O78      O      0.027450000000     0.423350000000     0.595160000000    -0.369302   
O79      O      0.514450000000     0.333930000000     0.628410000000    -0.363416   
O80      O      0.117680000000     0.393400000000     0.055030000000    -0.376371   
O81      O      0.079270000000     0.424010000000     0.076320000000    -0.38457    
O82      O      0.562040000000     0.310830000000     0.625950000000    -0.378196   
O83      O      0.130920000000     0.331700000000     0.051790000000    -0.366925   
O84      O      0.491810000000     0.383830000000     0.608130000000    -0.364632   
O85      O      0.546940000000     0.347280000000     0.052370000000    -0.595834   
O86      O      0.380830000000     0.133970000000     0.567490000000    -0.369893   
O87      O      0.251320000000     0.563280000000     0.027310000000    -0.371318   
O88      O      0.267700000000     0.113640000000     0.602940000000    -0.385118   
O89      O      0.365440000000     0.554110000000     0.024400000000    -0.393536   
O90      O      0.236400000000     0.607830000000     0.561390000000    -0.371683   
O91      O      0.390150000000     0.604160000000     0.524610000000    -0.366839   
O92      O      0.295490000000     0.533180000000     0.021950000000    -0.39287    
O93      O      0.346100000000     0.124090000000     0.605720000000    -0.384688   
O94      O      0.353620000000     0.141660000000     0.983490000000    -0.399674   
O95      O      0.256830000000     0.161590000000     0.029450000000    -0.392278   
O96      O      0.322440000000     0.180760000000     0.586730000000    -0.361157   
O97      O      0.298690000000     0.567880000000     0.969280000000    -0.36464    
O98      O      0.259990000000     0.604240000000     0.980700000000    -0.385505   
O99      O      0.353950000000     0.183640000000     0.544900000000    -0.383813   
O100     O      0.344560000000     0.588350000000     0.969480000000    -0.369134   
O101     O      0.275360000000     0.171980000000     0.577490000000    -0.362909   
O102     O      0.313350000000     0.608580000000     0.540270000000    -0.665215   
O103     O      0.564460000000     0.650860000000     0.251720000000    -0.367454   
O104     O      0.073610000000     0.077440000000     0.387460000000    -0.364489   
O105     O      0.534030000000     0.664920000000     0.361060000000    -0.38092    
O106     O      0.128240000000     0.082850000000     0.287080000000    -0.383912   
O107     O      0.037640000000     0.618820000000     0.389210000000    -0.367257   
O108     O      0.099260000000     0.602180000000     0.247510000000    -0.367648   
O109     O      0.115080000000     0.066370000000     0.357350000000    -0.375624   
O110     O      0.547160000000     0.681660000000     0.292150000000    -0.380942   
O111     O      0.548400000000     0.055480000000     0.255880000000    -0.387704   
O112     O      0.495010000000     0.080620000000     0.351320000000    -0.384054   
O113     O      0.494840000000     0.646100000000     0.286630000000    -0.360656   
O114     O      0.081880000000     0.021160000000     0.332400000000    -0.358094   
O115     O      0.036230000000     0.034770000000     0.354400000000    -0.380959   
O116     O      0.514340000000     0.610390000000     0.250910000000    -0.374852   
O117     O      0.086150000000     0.031690000000     0.282510000000    -0.367382   
O118     O      0.485910000000     0.632630000000     0.333320000000    -0.361437   
O119     O      0.063630000000     0.609020000000     0.317350000000    -0.612675   
O120     O      0.537210000000     0.768530000000     0.083890000000    -0.364621   
O121     O      0.051930000000     0.919560000000     0.513170000000    -0.369047   
O122     O      0.476080000000     0.863090000000     0.052200000000    -0.377005   
O123     O      0.093330000000     0.813250000000     0.509510000000    -0.372477   
O124     O      0.500970000000     0.910160000000     0.536990000000    -0.368413   
O125     O      0.572940000000     0.776960000000     0.542790000000    -0.368923   
O126     O      0.092400000000     0.886760000000     0.499850000000    -0.376437   
O127     O      0.492270000000     0.797010000000     0.088150000000    -0.371575   
O128     O      0.110220000000     0.807030000000     0.093890000000    -0.380552   
O129     O      0.027400000000     0.923350000000     0.095250000000    -0.369164   
O130     O      0.514690000000     0.833870000000     0.128570000000    -0.363563   
O131     O      0.117630000000     0.893560000000     0.555320000000    -0.376295   
O132     O      0.079130000000     0.924120000000     0.576490000000    -0.384482   
O133     O      0.562240000000     0.810710000000     0.126040000000    -0.378108   
O134     O      0.131000000000     0.831820000000     0.551960000000    -0.366911   
O135     O      0.491980000000     0.883760000000     0.108390000000    -0.364605   
O136     O      0.547060000000     0.847380000000     0.552530000000    -0.59558    
O137     O      0.380870000000     0.633830000000     0.067700000000    -0.369983   
O138     O      0.251160000000     0.063200000000     0.527170000000    -0.370891   
O139     O      0.267700000000     0.613750000000     0.103080000000    -0.385083   
O140     O      0.365290000000     0.053870000000     0.524600000000    -0.39328    
O141     O      0.236360000000     0.107690000000     0.061250000000    -0.371741   
O142     O      0.390070000000     0.103900000000     0.024680000000    -0.366991   
O143     O      0.295300000000     0.033020000000     0.521950000000    -0.392809   
O144     O      0.346110000000     0.623980000000     0.105890000000    -0.384774   
O145     O      0.353190000000     0.642210000000     0.483730000000    -0.401684   
O146     O      0.256950000000     0.661680000000     0.529590000000    -0.391877   
O147     O      0.322560000000     0.680760000000     0.087070000000    -0.361262   
O148     O      0.298670000000     0.067680000000     0.469240000000    -0.366469   
O149     O      0.260030000000     0.104160000000     0.480540000000    -0.387714   
O150     O      0.354120000000     0.683730000000     0.045290000000    -0.383875   
O151     O      0.344820000000     0.087670000000     0.469550000000    -0.370691   
O152     O      0.275470000000     0.672100000000     0.077630000000    -0.363157   
O153     O      0.313270000000     0.108520000000     0.040090000000    -0.665187   
O154     O      0.564470000000     0.650880000000     0.751720000000    -0.367302   
O155     O      0.073600000000     0.077450000000     0.887460000000    -0.36445    
O156     O      0.534060000000     0.664950000000     0.861070000000    -0.380764   
O157     O      0.128240000000     0.082870000000     0.787090000000    -0.383971   
O158     O      0.037650000000     0.618830000000     0.889210000000    -0.367093   
O159     O      0.099260000000     0.602210000000     0.747520000000    -0.367617   
O160     O      0.115070000000     0.066390000000     0.857360000000    -0.375703   
O161     O      0.547180000000     0.681690000000     0.792160000000    -0.380886   
O162     O      0.548400000000     0.055510000000     0.755880000000    -0.387849   
O163     O      0.495000000000     0.080660000000     0.851320000000    -0.384145   
O164     O      0.494840000000     0.646140000000     0.786640000000    -0.360561   
O165     O      0.081870000000     0.021180000000     0.832400000000    -0.357953   
O166     O      0.036220000000     0.034790000000     0.854400000000    -0.380893   
O167     O      0.514340000000     0.610430000000     0.750920000000    -0.375033   
O168     O      0.086140000000     0.031720000000     0.782520000000    -0.367392   
O169     O      0.485920000000     0.632670000000     0.833330000000    -0.361375   
O170     O      0.063620000000     0.609050000000     0.817360000000    -0.612808   
O171     O      0.537180000000     0.768520000000     0.583920000000    -0.364335   
O172     O      0.051930000000     0.919560000000     0.013160000000    -0.371735   
O173     O      0.476060000000     0.863090000000     0.552210000000    -0.37683    
O174     O      0.093380000000     0.813260000000     0.009500000000    -0.372622   
O175     O      0.500980000000     0.910170000000     0.036990000000    -0.36879    
O176     O      0.573000000000     0.776980000000     0.042790000000    -0.368921   
O177     O      0.092400000000     0.886760000000     0.999830000000    -0.37524    
O178     O      0.492240000000     0.797020000000     0.588170000000    -0.371466   
O179     O      0.110190000000     0.807000000000     0.593890000000    -0.380662   
O180     O      0.027390000000     0.923360000000     0.595260000000    -0.369132   
O181     O      0.514670000000     0.833880000000     0.628590000000    -0.363393   
O182     O      0.117640000000     0.893580000000     0.055300000000    -0.376535   
O183     O      0.079130000000     0.924130000000     0.076480000000    -0.384454   
O184     O      0.562230000000     0.810720000000     0.626050000000    -0.378023   
O185     O      0.131030000000     0.831860000000     0.051960000000    -0.366897   
O186     O      0.491960000000     0.883780000000     0.608400000000    -0.364528   
O187     O      0.547080000000     0.847390000000     0.052520000000    -0.595589   
O188     O      0.380870000000     0.633860000000     0.567700000000    -0.369998   
O189     O      0.251160000000     0.063210000000     0.027150000000    -0.371363   
O190     O      0.267710000000     0.613750000000     0.603090000000    -0.385097   
O191     O      0.365290000000     0.053880000000     0.024550000000    -0.393389   
O192     O      0.236360000000     0.107680000000     0.561260000000    -0.371582   
O193     O      0.390070000000     0.103890000000     0.524700000000    -0.366653   
O194     O      0.295290000000     0.033030000000     0.021910000000    -0.392953   
O195     O      0.346110000000     0.624000000000     0.605900000000    -0.384704   
O196     O      0.353180000000     0.642240000000     0.983730000000    -0.399752   
O197     O      0.256950000000     0.661700000000     0.029590000000    -0.392142   
O198     O      0.322550000000     0.680760000000     0.587060000000    -0.361163   
O199     O      0.298660000000     0.067720000000     0.969220000000    -0.364875   
O200     O      0.260020000000     0.104190000000     0.980530000000    -0.385786   
O201     O      0.354100000000     0.683730000000     0.545270000000    -0.38368    
O202     O      0.344810000000     0.087720000000     0.969520000000    -0.369201   
O203     O      0.275460000000     0.672090000000     0.577630000000    -0.363183   
O204     O      0.313270000000     0.108520000000     0.540100000000    -0.6658     
O205     O      0.064680000000     0.153420000000     0.252600000000    -0.367966   
O206     O      0.574210000000     0.574220000000     0.387020000000    -0.363626   
O207     O      0.031240000000     0.166820000000     0.361540000000    -0.380728   
O208     O      0.628660000000     0.581010000000     0.286530000000    -0.384073   
O209     O      0.539300000000     0.117370000000     0.388570000000    -0.366838   
O210     O      0.599600000000     0.100760000000     0.246870000000    -0.367558   
O211     O      0.615690000000     0.563790000000     0.356750000000    -0.376037   
O212     O      0.046900000000     0.183940000000     0.292990000000    -0.381132   
O213     O      0.047710000000     0.557310000000     0.256590000000    -0.388355   
O214     O      0.994420000000     0.581840000000     0.351770000000    -0.379604   
O215     O      0.994520000000     0.148650000000     0.286330000000    -0.358008   
O216     O      0.582070000000     0.518810000000     0.331460000000    -0.358741   
O217     O      0.536550000000     0.532570000000     0.353650000000    -0.38123    
O218     O      0.014440000000     0.113070000000     0.250740000000    -0.378723   
O219     O      0.587140000000     0.529510000000     0.281740000000    -0.36701    
O220     O      0.984850000000     0.133720000000     0.332280000000    -0.357897   
O221     O      0.564130000000     0.107330000000     0.316650000000    -0.614673   
O222     O      0.036490000000     0.269290000000     0.085530000000    -0.362288   
O223     O      0.551780000000     0.418630000000     0.512190000000    -0.368401   
O224     O      0.975700000000     0.364040000000     0.052850000000    -0.375328   
O225     O      0.594510000000     0.312780000000     0.508930000000    -0.37206    
O226     O      0.000890000000     0.410850000000     0.537410000000    -0.373175   
O227     O      0.070840000000     0.277480000000     0.543330000000    -0.36954    
O228     O      0.592480000000     0.386110000000     0.498980000000    -0.376484   
O229     O      0.991620000000     0.298010000000     0.089210000000    -0.364056   
O230     O      0.610440000000     0.306930000000     0.093440000000    -0.380523   
O231     O      0.527680000000     0.422340000000     0.094720000000    -0.371334   
O232     O      0.014460000000     0.335260000000     0.129370000000    -0.364832   
O233     O      0.617850000000     0.393350000000     0.554450000000    -0.376196   
O234     O      0.579230000000     0.423880000000     0.575450000000    -0.383901   
O235     O      0.061990000000     0.312040000000     0.126800000000    -0.378378   
O236     O      0.631420000000     0.331780000000     0.551640000000    -0.366667   
O237     O      0.991710000000     0.384870000000     0.108980000000    -0.356617   
O238     O      0.046500000000     0.347880000000     0.553160000000    -0.595167   
O239     O      0.880990000000     0.134740000000     0.066990000000    -0.369763   
O240     O      0.751550000000     0.563590000000     0.526990000000    -0.370874   
O241     O      0.767880000000     0.113650000000     0.102410000000    -0.385422   
O242     O      0.865830000000     0.554750000000     0.524390000000    -0.393745   
O243     O      0.736560000000     0.608040000000     0.060800000000    -0.371734   
O244     O      0.890360000000     0.604920000000     0.024090000000    -0.367333   
O245     O      0.795820000000     0.533560000000     0.522170000000    -0.393049   
O246     O      0.846330000000     0.124610000000     0.105240000000    -0.384837   
O247     O      0.853660000000     0.141980000000     0.482980000000    -0.40157    
O248     O      0.756970000000     0.161960000000     0.529070000000    -0.392348   
O249     O      0.822380000000     0.181100000000     0.086380000000    -0.361204   
O250     O      0.799040000000     0.567660000000     0.469180000000    -0.366274   
O251     O      0.760240000000     0.604040000000     0.480210000000    -0.387636   
O252     O      0.853940000000     0.184230000000     0.044600000000    -0.383911   
O253     O      0.844720000000     0.588510000000     0.469230000000    -0.37067    
O254     O      0.775360000000     0.172150000000     0.077200000000    -0.362884   
O255     O      0.813490000000     0.609250000000     0.039650000000    -0.666639   
O256     O      0.064690000000     0.153450000000     0.752600000000    -0.367904   
O257     O      0.574190000000     0.574220000000     0.887030000000    -0.363421   
O258     O      0.031260000000     0.166840000000     0.861550000000    -0.38071    
O259     O      0.628660000000     0.581020000000     0.786540000000    -0.384142   
O260     O      0.539320000000     0.117390000000     0.888570000000    -0.366669   
O261     O      0.599600000000     0.100780000000     0.746880000000    -0.367466   
O262     O      0.615680000000     0.563800000000     0.856760000000    -0.376106   
O263     O      0.046920000000     0.183970000000     0.793000000000    -0.381138   
O264     O      0.047710000000     0.557340000000     0.756590000000    -0.3883     
O265     O      0.994410000000     0.581880000000     0.851770000000    -0.379598   
O266     O      0.994520000000     0.148690000000     0.786340000000    -0.357822   
O267     O      0.582050000000     0.518820000000     0.831460000000    -0.358767   
O268     O      0.536540000000     0.532590000000     0.853650000000    -0.381147   
O269     O      0.014450000000     0.113110000000     0.750750000000    -0.378852   
O270     O      0.587140000000     0.529530000000     0.781740000000    -0.367022   
O271     O      0.984860000000     0.133770000000     0.832290000000    -0.357837   
O272     O      0.564130000000     0.107340000000     0.816660000000    -0.614651   
O273     O      0.036450000000     0.269300000000     0.585560000000    -0.362168   
O274     O      0.551780000000     0.418640000000     0.012190000000    -0.37097    
O275     O      0.975680000000     0.364050000000     0.552870000000    -0.375138   
O276     O      0.594550000000     0.312800000000     0.008920000000    -0.372437   
O277     O      0.000900000000     0.410850000000     0.037410000000    -0.373463   
O278     O      0.070900000000     0.277480000000     0.043330000000    -0.369319   
O279     O      0.592490000000     0.386130000000     0.998970000000    -0.375191   
O280     O      0.991590000000     0.298030000000     0.589240000000    -0.363965   
O281     O      0.610410000000     0.306900000000     0.593440000000    -0.38053    
O282     O      0.527680000000     0.422340000000     0.594720000000    -0.371271   
O283     O      0.014450000000     0.335280000000     0.629390000000    -0.364864   
O284     O      0.617870000000     0.393380000000     0.054450000000    -0.376483   
O285     O      0.579240000000     0.423900000000     0.075450000000    -0.383954   
O286     O      0.061970000000     0.312040000000     0.626810000000    -0.378503   
O287     O      0.631440000000     0.331820000000     0.051640000000    -0.36674    
O288     O      0.991690000000     0.384890000000     0.608990000000    -0.356486   
O289     O      0.046520000000     0.347880000000     0.053140000000    -0.595131   
O290     O      0.880990000000     0.134780000000     0.567000000000    -0.370038   
O291     O      0.751540000000     0.563610000000     0.026970000000    -0.370949   
O292     O      0.767890000000     0.113650000000     0.602420000000    -0.385421   
O293     O      0.865830000000     0.554750000000     0.024330000000    -0.393981   
O294     O      0.736560000000     0.608030000000     0.560810000000    -0.371755   
O295     O      0.890360000000     0.604930000000     0.524110000000    -0.366799   
O296     O      0.795820000000     0.533570000000     0.022130000000    -0.392999   
O297     O      0.846340000000     0.124640000000     0.605250000000    -0.384903   
O298     O      0.853650000000     0.142010000000     0.982970000000    -0.399609   
O299     O      0.756970000000     0.161970000000     0.029060000000    -0.392488   
O300     O      0.822370000000     0.181110000000     0.586370000000    -0.361243   
O301     O      0.799030000000     0.567690000000     0.969150000000    -0.36478    
O302     O      0.760230000000     0.604060000000     0.980190000000    -0.385703   
O303     O      0.853920000000     0.184240000000     0.544580000000    -0.383646   
O304     O      0.844710000000     0.588550000000     0.969210000000    -0.36913    
O305     O      0.775350000000     0.172150000000     0.577200000000    -0.362997   
O306     O      0.813500000000     0.609240000000     0.539660000000    -0.667186   
O307     O      0.064570000000     0.653120000000     0.252680000000    -0.367938   
O308     O      0.574180000000     0.074970000000     0.386940000000    -0.363929   
O309     O      0.031520000000     0.666610000000     0.361650000000    -0.380588   
O310     O      0.628690000000     0.081420000000     0.286500000000    -0.384331   
O311     O      0.540010000000     0.617130000000     0.388650000000    -0.366553   
O312     O      0.599550000000     0.600400000000     0.246940000000    -0.367644   
O313     O      0.615680000000     0.064380000000     0.356740000000    -0.376067   
O314     O      0.046760000000     0.683660000000     0.293050000000    -0.381122   
O315     O      0.047710000000     0.057590000000     0.256520000000    -0.388312   
O316     O      0.994430000000     0.081840000000     0.351120000000    -0.379841   
O317     O      0.994380000000     0.648190000000     0.286580000000    -0.358362   
O318     O      0.582260000000     0.019280000000     0.331560000000    -0.358664   
O319     O      0.536700000000     0.032920000000     0.353730000000    -0.380808   
O320     O      0.014340000000     0.612710000000     0.250930000000    -0.379118   
O321     O      0.587110000000     0.029930000000     0.281770000000    -0.367295   
O322     O      0.984900000000     0.633700000000     0.332840000000    -0.357885   
O323     O      0.564150000000     0.606890000000     0.316720000000    -0.614623   
O324     O      0.036650000000     0.769270000000     0.085610000000    -0.362195   
O325     O      0.551850000000     0.918810000000     0.512390000000    -0.368437   
O326     O      0.975740000000     0.863860000000     0.053030000000    -0.375413   
O327     O      0.594890000000     0.813130000000     0.509120000000    -0.372018   
O328     O      0.000810000000     0.910720000000     0.537540000000    -0.373271   
O329     O      0.071100000000     0.777540000000     0.543420000000    -0.369419   
O330     O      0.592690000000     0.886450000000     0.499290000000    -0.376432   
O331     O      0.991770000000     0.797940000000     0.089410000000    -0.363978   
O332     O      0.610610000000     0.807000000000     0.093560000000    -0.380415   
O333     O      0.527670000000     0.922410000000     0.094890000000    -0.37132    
O334     O      0.014600000000     0.835210000000     0.129540000000    -0.364858   
O335     O      0.617870000000     0.893670000000     0.554850000000    -0.376231   
O336     O      0.579110000000     0.924110000000     0.575700000000    -0.383631   
O337     O      0.062110000000     0.811950000000     0.126920000000    -0.37816    
O338     O      0.631600000000     0.832040000000     0.551860000000    -0.366516   
O339     O      0.991770000000     0.884790000000     0.109170000000    -0.356569   
O340     O      0.046570000000     0.847890000000     0.553290000000    -0.594948   
O341     O      0.881030000000     0.634650000000     0.067150000000    -0.369887   
O342     O      0.751370000000     0.063570000000     0.526850000000    -0.370871   
O343     O      0.767900000000     0.613690000000     0.102520000000    -0.385291   
O344     O      0.865660000000     0.054510000000     0.524550000000    -0.393711   
O345     O      0.736510000000     0.107940000000     0.060720000000    -0.371765   
O346     O      0.890280000000     0.104630000000     0.024230000000    -0.367027   
O347     O      0.795600000000     0.033440000000     0.522110000000    -0.393008   
O348     O      0.846350000000     0.624520000000     0.105370000000    -0.385023   
O349     O      0.853200000000     0.642540000000     0.483160000000    -0.401713   
O350     O      0.757070000000     0.662030000000     0.529180000000    -0.39215    
O351     O      0.822460000000     0.681080000000     0.086680000000    -0.361237   
O352     O      0.799000000000     0.067570000000     0.469130000000    -0.366594   
O353     O      0.760260000000     0.104060000000     0.480070000000    -0.387866   
O354     O      0.854060000000     0.684330000000     0.044940000000    -0.383832   
O355     O      0.844980000000     0.087910000000     0.469310000000    -0.370662   
O356     O      0.775450000000     0.672210000000     0.077320000000    -0.363098   
O357     O      0.813410000000     0.109180000000     0.039520000000    -0.667067   
O358     O      0.064570000000     0.653150000000     0.752680000000    -0.367813   
O359     O      0.574160000000     0.074980000000     0.886950000000    -0.363724   
O360     O      0.031540000000     0.666630000000     0.861660000000    -0.380517   
O361     O      0.628690000000     0.081430000000     0.786510000000    -0.384066   
O362     O      0.540030000000     0.617150000000     0.888650000000    -0.366517   
O363     O      0.599560000000     0.600420000000     0.746950000000    -0.367548   
O364     O      0.615660000000     0.064390000000     0.856750000000    -0.376153   
O365     O      0.046770000000     0.683690000000     0.793060000000    -0.381081   
O366     O      0.047710000000     0.057620000000     0.756520000000    -0.388307   
O367     O      0.994420000000     0.081880000000     0.851120000000    -0.379844   
O368     O      0.994390000000     0.648230000000     0.786590000000    -0.358319   
O369     O      0.582250000000     0.019290000000     0.831560000000    -0.358606   
O370     O      0.536690000000     0.032940000000     0.853730000000    -0.380917   
O371     O      0.014340000000     0.612750000000     0.750930000000    -0.378954   
O372     O      0.587110000000     0.029950000000     0.781770000000    -0.367127   
O373     O      0.984910000000     0.633750000000     0.832850000000    -0.35782    
O374     O      0.564150000000     0.606900000000     0.816720000000    -0.614748   
O375     O      0.036620000000     0.769270000000     0.585650000000    -0.362082   
O376     O      0.551850000000     0.918820000000     0.012390000000    -0.371086   
O377     O      0.975720000000     0.863870000000     0.553050000000    -0.375248   
O378     O      0.594930000000     0.813150000000     0.009110000000    -0.372382   
O379     O      0.000820000000     0.910720000000     0.037530000000    -0.373603   
O380     O      0.071160000000     0.777540000000     0.043420000000    -0.369214   
O381     O      0.592700000000     0.886470000000     0.999280000000    -0.375098   
O382     O      0.991730000000     0.797960000000     0.589440000000    -0.363794   
O383     O      0.610590000000     0.806970000000     0.593560000000    -0.380326   
O384     O      0.527670000000     0.922410000000     0.594880000000    -0.371251   
O385     O      0.014590000000     0.835230000000     0.629550000000    -0.365044   
O386     O      0.617880000000     0.893700000000     0.054850000000    -0.376434   
O387     O      0.579110000000     0.924130000000     0.075700000000    -0.383738   
O388     O      0.062090000000     0.811960000000     0.626930000000    -0.378379   
O389     O      0.631630000000     0.832090000000     0.051870000000    -0.366571   
O390     O      0.991760000000     0.884810000000     0.609180000000    -0.356724   
O391     O      0.046590000000     0.847890000000     0.053280000000    -0.595072   
O392     O      0.881030000000     0.634690000000     0.567150000000    -0.37009    
O393     O      0.751360000000     0.063580000000     0.026820000000    -0.371112   
O394     O      0.767900000000     0.613690000000     0.602530000000    -0.385313   
O395     O      0.865650000000     0.054510000000     0.024500000000    -0.393789   
O396     O      0.736520000000     0.107930000000     0.560730000000    -0.371823   
O397     O      0.890290000000     0.104630000000     0.524250000000    -0.366576   
O398     O      0.795590000000     0.033450000000     0.022070000000    -0.39321    
O399     O      0.846360000000     0.624550000000     0.605380000000    -0.384972   
O400     O      0.853200000000     0.642570000000     0.983160000000    -0.399762   
O401     O      0.757070000000     0.662050000000     0.029180000000    -0.392549   
O402     O      0.822450000000     0.681090000000     0.586670000000    -0.361217   
O403     O      0.798990000000     0.067600000000     0.969100000000    -0.364889   
O404     O      0.760250000000     0.104080000000     0.980060000000    -0.386007   
O405     O      0.854040000000     0.684340000000     0.544920000000    -0.383599   
O406     O      0.844960000000     0.087950000000     0.969280000000    -0.369177   
O407     O      0.775440000000     0.672210000000     0.577320000000    -0.363099   
O408     O      0.813410000000     0.109180000000     0.539530000000    -0.667621   


