data_structure

_audit_creation_method RASPA-1.0
_audit_creation_date 2023-6-4
_audit_author_name 'Poobodin Mano'

_cell_length_a    39.714
_cell_length_b    40.3281
_cell_length_c    40.892
_cell_angle_alpha 87.1372
_cell_angle_beta  93.8137
_cell_angle_gamma 120.437
_cell_volume      56331.4

_symmetry_cell_setting          triclinic
_symmetry_space_group_name_Hall 'P 1'
_symmetry_space_group_name_H-M  'P 1'
_symmetry_Int_Tables_number     1

_symmetry_equiv_pos_as_xyz 'x,y,z'

loop_
_atom_site_label
_atom_site_type_symbol
_atom_site_fract_x
_atom_site_fract_y
_atom_site_fract_z
_atom_site_charge
C1       C      0.996200000000     0.099960000000     0.024170000000     0.464247   
C2       C      0.967620000000     0.955230000000     0.995400000000     0.469969   
C3       C      0.034980000000     0.025070000000     0.956050000000     0.461249   
C4       C      0.953870000000     0.019110000000     0.084340000000     0.484956   
C5       C      0.041490000000     0.021060000000     0.114310000000     0.509021   
C6       C      0.113760000000     0.068220000000     0.017340000000     0.442761   
C7       C      0.098310000000     0.134470000000     0.039530000000     0.501595   
C8       C      0.002250000000     0.937070000000     0.065200000000     0.387895   
C9       C      0.020120000000     0.023980000000     0.449110000000     0.494123   
C10      C      0.033110000000     0.099200000000     0.566360000000     0.505397   
C11      C      0.930130000000     0.991750000000     0.503730000000     0.454854   
C12      C      0.115350000000     0.094520000000     0.510390000000     0.492859   
C13      C      0.107370000000     0.008800000000     0.548470000000     0.496265   
C14      C      0.957550000000     0.939930000000     0.562020000000     0.459632   
C15      C      0.992610000000     0.925800000000     0.479290000000     0.421797   
C16      C      0.024940000000     0.016370000000     0.613350000000     0.480946   
C17      C      0.952130000000     0.466560000000     0.994150000000     0.469268   
C18      C      0.052650000000     0.634070000000     0.982080000000     0.440001   
C19      C      0.946200000000     0.525720000000     0.037460000000     0.451766   
C20      C      0.066450000000     0.576470000000     0.939020000000     0.454551   
C21      C      0.108760000000     0.534960000000     0.000730000000     0.459153   
C22      C      0.031410000000     0.560340000000     0.096300000000     0.46765    
C23      C      0.034070000000     0.461750000000     0.026700000000     0.483412   
C24      C      0.096850000000     0.632090000000     0.058430000000     0.450783   
C25      C      0.962270000000     0.443800000000     0.505060000000     0.495019   
C26      C      0.035020000000     0.617690000000     0.503490000000     0.379384   
C27      C      0.963750000000     0.519800000000     0.536990000000     0.470204   
C28      C      0.060380000000     0.555870000000     0.439390000000     0.451295   
C29      C      0.120950000000     0.537840000000     0.501460000000     0.457398   
C30      C      0.045370000000     0.552700000000     0.598460000000     0.466914   
C31      C      0.052840000000     0.451810000000     0.537820000000     0.487033   
C32      C      0.124480000000     0.632670000000     0.532680000000     0.381432   
C33      C      0.470520000000     0.088010000000     0.036270000000     0.488531   
C34      C      0.531870000000     0.961850000000     0.034990000000     0.418422   
C35      C      0.520590000000     0.070630000000     0.972510000000     0.451479   
C36      C      0.455830000000     0.979540000000     0.065670000000     0.507613   
C37      C      0.531070000000     0.028150000000     0.131940000000     0.472269   
C38      C      0.617900000000     0.125980000000     0.006640000000     0.450699   
C39      C      0.550100000000     0.138900000000     0.096120000000     0.512688   
C40      C      0.616760000000     0.050050000000     0.060730000000     0.466223   
C41      C      0.447390000000     0.993260000000     0.528660000000     0.497015   
C42      C      0.525810000000     0.938170000000     0.537940000000     0.466274   
C43      C      0.550750000000     0.014010000000     0.474870000000     0.485208   
C44      C      0.447320000000     0.964150000000     0.616710000000     0.432938   
C45      C      0.546850000000     0.035230000000     0.636910000000     0.469449   
C46      C      0.615090000000     0.098620000000     0.521400000000     0.506222   
C47      C      0.509270000000     0.087610000000     0.561310000000     0.485089   
C48      C      0.602440000000     0.994990000000     0.594270000000     0.463014   
C49      C      0.441930000000     0.478190000000     0.028560000000     0.483573   
C50      C      0.528100000000     0.633320000000     0.013410000000     0.484559   
C51      C      0.467360000000     0.565500000000     0.090310000000     0.500987   
C52      C      0.520400000000     0.518200000000     0.967900000000     0.46817    
C53      C      0.601900000000     0.548140000000     0.028610000000     0.463852   
C54      C      0.550300000000     0.553450000000     0.127270000000     0.511545   
C55      C      0.508460000000     0.446050000000     0.058030000000     0.429522   
C56      C      0.617010000000     0.633600000000     0.044780000000     0.490813   
C57      C      0.463030000000     0.440770000000     0.514190000000     0.459075   
C58      C      0.532230000000     0.597940000000     0.531340000000     0.455516   
C59      C      0.449250000000     0.500820000000     0.580920000000     0.383883   
C60      C      0.536890000000     0.500990000000     0.461660000000     0.481741   
C61      C      0.623230000000     0.535460000000     0.517950000000     0.484675   
C62      C      0.534690000000     0.532550000000     0.629340000000     0.383903   
C63      C      0.517960000000     0.434300000000     0.583310000000     0.46379    
C64      C      0.617080000000     0.594280000000     0.563720000000     0.465254   
C65      C      0.527050000000     0.480760000000     0.889920000000    -0.120308   
C66      C      0.547170000000     0.559360000000     0.682090000000     0.0883798  
C67      C      0.538300000000     0.497080000000     0.676130000000     0.0905122  
C68      C      0.547250000000     0.554700000000     0.716010000000    -0.0910203  
C69      C      0.501760000000     0.510910000000     0.776810000000    -0.0344052  
C70      C      0.495450000000     0.505860000000     0.810140000000    -0.0297991  
C71      C      0.534720000000     0.512320000000     0.764950000000    -0.00360865 
C72      C      0.538880000000     0.491710000000     0.710020000000    -0.0891627  
C73      C      0.522460000000     0.502890000000     0.832260000000    -0.0103941  
C74      C      0.507550000000     0.528090000000     0.880020000000    -0.103107   
C75      C      0.554650000000     0.502600000000     0.820120000000    -0.0288769  
C76      C      0.506250000000     0.530580000000     0.913510000000     0.0840781  
C77      C      0.525030000000     0.483410000000     0.923730000000     0.179664   
C78      C      0.560610000000     0.507060000000     0.786520000000    -0.0334116  
C79      C      0.541880000000     0.520160000000     0.730020000000     0.0579317  
C80      C      0.518750000000     0.503570000000     0.867870000000     0.0704543  
C81      C      0.567220000000     0.567000000000     0.215830000000    -0.122596   
C82      C      0.543110000000     0.471600000000     0.415080000000     0.0780214  
C83      C      0.516280000000     0.512530000000     0.408900000000     0.0778704  
C84      C      0.543470000000     0.469940000000     0.381050000000    -0.0961383  
C85      C      0.571890000000     0.501690000000     0.312870000000    -0.0345996  
C86      C      0.580070000000     0.512430000000     0.280040000000    -0.031902   
C87      C      0.536680000000     0.495250000000     0.325040000000    -0.00631032 
C88      C      0.516130000000     0.511450000000     0.375050000000    -0.0962287  
C89      C      0.553350000000     0.517290000000     0.259280000000    -0.0121786  
C90      C      0.561880000000     0.507190000000     0.202010000000    -0.105302   
C91      C      0.517480000000     0.509070000000     0.270860000000    -0.0313553  
C92      C      0.561790000000     0.517360000000     0.169040000000     0.0856787  
C93      C      0.568550000000     0.577240000000     0.182480000000     0.17728    
C94      C      0.509010000000     0.497740000000     0.303380000000    -0.0345993  
C95      C      0.531010000000     0.491050000000     0.360720000000     0.0531636  
C96      C      0.562290000000     0.531180000000     0.225420000000     0.0698604  
C97      C      0.475780000000     0.834770000000     0.521030000000    -0.115879   
C98      C      0.512860000000     0.635260000000     0.496230000000     0.0737012  
C99      C      0.525540000000     0.647670000000     0.553100000000     0.0772267  
C100     C      0.506170000000     0.666190000000     0.491400000000    -0.0932652  
C101     C      0.523120000000     0.750030000000     0.488880000000    -0.0339514  
C102     C      0.522950000000     0.784740000000     0.487710000000    -0.0316008  
C103     C      0.504490000000     0.722570000000     0.513890000000    -0.00485928 
C104     C      0.518600000000     0.678260000000     0.549230000000    -0.092763   
C105     C      0.503880000000     0.792610000000     0.511360000000    -0.00734474 
C106     C      0.543190000000     0.864730000000     0.507940000000    -0.0940924  
C107     C      0.483650000000     0.764270000000     0.535370000000    -0.0298877  
C108     C      0.547590000000     0.900530000000     0.513870000000     0.0901047  
C109     C      0.480700000000     0.871230000000     0.526250000000     0.173155   
C110     C      0.484020000000     0.729750000000     0.536650000000    -0.0336596  
C111     C      0.509230000000     0.688250000000     0.518110000000     0.0508448  
C112     C      0.507420000000     0.831140000000     0.512810000000     0.068153   
C113     C      0.543690000000     0.360070000000     0.603600000000    -0.11868    
C114     C      0.476080000000     0.114390000000     0.586510000000     0.0892907  
C115     C      0.535810000000     0.155310000000     0.560990000000     0.0873637  
C116     C      0.473270000000     0.146230000000     0.594540000000    -0.0881979  
C117     C      0.471290000000     0.223520000000     0.578960000000    -0.0357313  
C118     C      0.472400000000     0.258390000000     0.582690000000    -0.0310419  
C119     C      0.500720000000     0.217610000000     0.593810000000    -0.00397077 
C120     C      0.534420000000     0.187690000000     0.569390000000    -0.0923232  
C121     C      0.502670000000     0.287850000000     0.601830000000    -0.00953183 
C122     C      0.473830000000     0.331250000000     0.600290000000    -0.0986688  
C123     C      0.530760000000     0.280650000000     0.618210000000    -0.0302835  
C124     C      0.478430000000     0.367960000000     0.596540000000     0.0812139  
C125     C      0.547560000000     0.396660000000     0.600880000000     0.164806   
C126     C      0.530090000000     0.246150000000     0.613860000000    -0.0338751  
C127     C      0.502810000000     0.183300000000     0.586100000000     0.056126   
C128     C      0.506660000000     0.326760000000     0.602430000000     0.0640775  
C129     C      0.550040000000     0.087120000000     0.709160000000    -0.115109   
C130     C      0.494710000000     0.038730000000     0.921860000000     0.0816257  
C131     C      0.536990000000     0.106200000000     0.921950000000     0.0795998  
C132     C      0.497060000000     0.038240000000     0.887950000000    -0.087118   
C133     C      0.527680000000     0.037230000000     0.823240000000    -0.0335111  
C134     C      0.535680000000     0.035600000000     0.790770000000    -0.0291141  
C135     C      0.530600000000     0.070690000000     0.835510000000    -0.00168799 
C136     C      0.541190000000     0.106590000000     0.888120000000    -0.0905469  
C137     C      0.548190000000     0.067760000000     0.769400000000    -0.00699574 
C138     C      0.567320000000     0.039440000000     0.725160000000    -0.0967316  
C139     C      0.551860000000     0.101530000000     0.781760000000    -0.029685   
C140     C      0.568000000000     0.032680000000     0.692080000000     0.0844853  
C141     C      0.552870000000     0.081140000000     0.676040000000     0.175821   
C142     C      0.542780000000     0.102820000000     0.814110000000    -0.0336724  
C143     C      0.522340000000     0.072060000000     0.870680000000     0.0515708  
C144     C      0.555690000000     0.065110000000     0.734270000000     0.0663856  
C145     C      0.583700000000     0.006800000000     0.394260000000    -0.117638   
C146     C      0.546440000000     0.050740000000     0.186510000000     0.0809962  
C147     C      0.534260000000     0.988220000000     0.176100000000     0.0799565  
C148     C      0.551650000000     0.045510000000     0.220030000000    -0.0924965  
C149     C      0.582180000000     0.032560000000     0.287150000000    -0.0344602  
C150     C      0.583010000000     0.029710000000     0.321420000000    -0.0314146  
C151     C      0.550410000000     0.004600000000     0.268240000000    -0.00452292 
C152     C      0.538390000000     0.981660000000     0.209840000000    -0.0911274  
C153     C      0.551790000000     0.999140000000     0.337640000000    -0.00947029 
C154     C      0.517110000000     0.992260000000     0.388810000000    -0.09992    
C155     C      0.520570000000     0.970480000000     0.318700000000    -0.031422   
C156     C      0.517600000000     0.995880000000     0.422660000000     0.0812128  
C157     C      0.583150000000     0.009050000000     0.428480000000     0.169098   
C158     C      0.520060000000     0.973010000000     0.284340000000    -0.034269   
C159     C      0.547190000000     0.010570000000     0.232210000000     0.0525212  
C160     C      0.550720000000     0.998830000000     0.374050000000     0.0650586  
C161     C      0.501250000000     0.880770000000     0.979550000000    -0.118386   
C162     C      0.533660000000     0.693610000000     0.020480000000     0.0943571  
C163     C      0.492600000000     0.654420000000     0.976750000000     0.0839413  
C164     C      0.522740000000     0.720760000000     0.012800000000    -0.090624   
C165     C      0.458170000000     0.744410000000     0.002780000000    -0.0342471  
C166     C      0.458680000000     0.778710000000     0.007640000000    -0.03091    
C167     C      0.483790000000     0.743550000000     0.981260000000    -0.00523653 
C168     C      0.480680000000     0.681340000000     0.968420000000    -0.0917613  
C169     C      0.485010000000     0.812720000000     0.991160000000    -0.00985482 
C170     C      0.497200000000     0.858660000000     0.035530000000    -0.0995107  
C171     C      0.507700000000     0.810710000000     0.967140000000    -0.03079    
C172     C      0.510210000000     0.895920000000     0.045720000000     0.0805803  
C173     C      0.514980000000     0.918180000000     0.990300000000     0.169003   
C174     C      0.507160000000     0.776380000000     0.962320000000    -0.0348552  
C175     C      0.495610000000     0.714530000000     0.987040000000     0.0591497  
C176     C      0.493060000000     0.850790000000     0.002100000000     0.0652595  
C177     C      0.583490000000     0.239400000000     0.112450000000    -0.119537   
C178     C      0.495070000000     0.400410000000     0.101850000000     0.0774304  
C179     C      0.523380000000     0.396630000000     0.053830000000     0.0791008  
C180     C      0.499630000000     0.370850000000     0.116830000000    -0.0951553  
C181     C      0.494610000000     0.287180000000     0.116170000000    -0.0353813  
C182     C      0.502920000000     0.257700000000     0.122620000000    -0.0311728  
C183     C      0.525020000000     0.325430000000     0.115110000000    -0.00614504 
C184     C      0.528820000000     0.367620000000     0.068150000000    -0.0929725  
C185     C      0.541850000000     0.266080000000     0.128400000000    -0.0107103  
C186     C      0.524610000000     0.197930000000     0.140360000000    -0.103322   
C187     C      0.571890000000     0.304810000000     0.129910000000    -0.0313379  
C188     C      0.527620000000     0.166540000000     0.132120000000     0.0869565  
C189     C      0.586710000000     0.207320000000     0.105650000000     0.168502   
C190     C      0.563550000000     0.334230000000     0.122960000000    -0.035206   
C191     C      0.517650000000     0.355120000000     0.100100000000     0.0527499  
C192     C      0.550920000000     0.234530000000     0.128250000000     0.0664227  
C193     C      0.715820000000     0.178210000000     0.511320000000    -0.119908   
C194     C      0.901460000000     0.396810000000     0.525640000000     0.0828215  
C195     C      0.908890000000     0.404090000000     0.468170000000     0.0795007  
C196     C      0.863420000000     0.366340000000     0.521110000000    -0.0946517  
C197     C      0.777310000000     0.313620000000     0.501010000000    -0.0348998  
C198     C      0.743380000000     0.277620000000     0.502970000000    -0.030381   
C199     C      0.809860000000     0.317890000000     0.485530000000    -0.00563491 
C200     C      0.871050000000     0.372770000000     0.462780000000    -0.0958992  
C201     C      0.741820000000     0.245270000000     0.490010000000    -0.0109822  
C202     C      0.670220000000     0.197370000000     0.489960000000    -0.103832   
C203     C      0.773580000000     0.249930000000     0.473010000000    -0.0308673  
C204     C      0.639590000000     0.160690000000     0.497550000000     0.0894424  
C205     C      0.684620000000     0.141540000000     0.518810000000     0.177514   
C206     C      0.807260000000     0.286070000000     0.470550000000    -0.0339029  
C207     C      0.848140000000     0.353490000000     0.489540000000     0.0542377  
C208     C      0.708740000000     0.206370000000     0.496910000000     0.0701125  
C209     C      0.342050000000     0.909870000000     0.629490000000    -0.12029    
C210     C      0.180260000000     0.695540000000     0.530810000000     0.0769934  
C211     C      0.152600000000     0.667560000000     0.581730000000     0.0815109  
C212     C      0.206750000000     0.729980000000     0.546140000000    -0.0901958  
C213     C      0.254790000000     0.768950000000     0.625610000000    -0.0343274  
C214     C      0.285810000000     0.803060000000     0.638320000000    -0.0300047  
C215     C      0.234240000000     0.769660000000     0.596520000000    -0.00239036 
C216     C      0.178820000000     0.701470000000     0.597860000000    -0.0889629  
C217     C      0.296800000000     0.838490000000     0.622220000000    -0.0101187  
C218     C      0.368300000000     0.867550000000     0.632270000000    -0.0984657  
C219     C      0.273870000000     0.839460000000     0.594940000000    -0.0282302  
C220     C      0.405620000000     0.899340000000     0.631270000000     0.0884248  
C221     C      0.380420000000     0.941730000000     0.629930000000     0.167265   
C222     C      0.243000000000     0.805340000000     0.582090000000    -0.034221   
C223     C      0.205910000000     0.733360000000     0.579980000000     0.0529161  
C224     C      0.335890000000     0.872440000000     0.629390000000     0.0665647  
C225     C      0.869260000000     0.508080000000     0.557380000000    -0.118599   
C226     C      0.686220000000     0.567060000000     0.495150000000     0.0774487  
C227     C      0.676840000000     0.538010000000     0.548220000000     0.0826695  
C228     C      0.723910000000     0.572170000000     0.495730000000    -0.0946952  
C229     C      0.777600000000     0.537770000000     0.496100000000    -0.0346116  
C230     C      0.805990000000     0.527020000000     0.498280000000    -0.0318193  
C231     C      0.772880000000     0.555770000000     0.522470000000    -0.00515444 
C232     C      0.714250000000     0.543590000000     0.550030000000    -0.0909366  
C233     C      0.830220000000     0.534170000000     0.526850000000    -0.0105169  
C234     C      0.884780000000     0.532800000000     0.502320000000    -0.103533   
C235     C      0.826440000000     0.553450000000     0.552740000000    -0.0309993  
C236     C      0.917240000000     0.528490000000     0.505490000000     0.0842209  
C237     C      0.902540000000     0.504100000000     0.560060000000     0.173607   
C238     C      0.798080000000     0.564220000000     0.550540000000    -0.0343908  
C239     C      0.737550000000     0.559040000000     0.523060000000     0.0528265  
C240     C      0.861210000000     0.524010000000     0.528770000000     0.0675398  
C241     C      0.344990000000     0.471080000000     0.581990000000    -0.119339   
C242     C      0.153790000000     0.503940000000     0.491500000000     0.0793067  
C243     C      0.178640000000     0.550890000000     0.532930000000     0.0803815  
C244     C      0.183270000000     0.495360000000     0.499600000000    -0.0956601  
C245     C      0.266100000000     0.507170000000     0.510060000000    -0.0350473  
C246     C      0.298720000000     0.503690000000     0.518890000000    -0.032294   
C247     C      0.242260000000     0.506450000000     0.534230000000    -0.0062466  
C248     C      0.208100000000     0.542680000000     0.541920000000    -0.0944099  
C249     C      0.307640000000     0.498870000000     0.551960000000    -0.0109413  
C250     C      0.379640000000     0.529830000000     0.550640000000    -0.101287   
C251     C      0.282770000000     0.496290000000     0.576000000000    -0.0318473  
C252     C      0.414390000000     0.530540000000     0.559310000000     0.0832683  
C253     C      0.380500000000     0.472380000000     0.590500000000     0.169176   
C254     C      0.250440000000     0.500350000000     0.567210000000    -0.034839   
C255     C      0.210520000000     0.514570000000     0.525290000000     0.0536768  
C256     C      0.344450000000     0.499550000000     0.561440000000     0.0661839  
C257     C      0.059840000000     0.606380000000     0.674010000000    -0.118416   
C258     C      0.038390000000     0.573360000000     0.885420000000     0.0737848  
C259     C      0.107350000000     0.606630000000     0.893540000000     0.0742211  
C260     C      0.041440000000     0.579370000000     0.851660000000    -0.0930843  
C261     C      0.107630000000     0.595220000000     0.786550000000    -0.0351432  
C262     C      0.105910000000     0.592070000000     0.752420000000    -0.0321905  
C263     C      0.080900000000     0.601890000000     0.801690000000    -0.00487393 
C264     C      0.111490000000     0.613000000000     0.859550000000    -0.0925873  
C265     C      0.077350000000     0.595410000000     0.732550000000    -0.0094305  
C266     C      0.075960000000     0.557000000000     0.685420000000    -0.0998779  
C267     C      0.052120000000     0.604290000000     0.747620000000    -0.0310472  
C268     C      0.067530000000     0.546880000000     0.652500000000     0.0822357  
C269     C      0.050900000000     0.595290000000     0.641040000000     0.173366   
C270     C      0.053990000000     0.607630000000     0.781660000000    -0.0343944  
C271     C      0.078200000000     0.598860000000     0.838090000000     0.050052   
C272     C      0.071770000000     0.586780000000     0.696800000000     0.0654856  
C273     C      0.068880000000     0.566350000000     0.182090000000    -0.119089   
C274     C      0.091470000000     0.595920000000     0.392960000000     0.0762307  
C275     C      0.027080000000     0.542720000000     0.386990000000     0.075441   
C276     C      0.091410000000     0.604130000000     0.359210000000    -0.0916044  
C277     C      0.091560000000     0.596310000000     0.285190000000    -0.0341346  
C278     C      0.089910000000     0.597210000000     0.250880000000    -0.030864   
C279     C      0.058340000000     0.586890000000     0.302530000000    -0.00429698 
C280     C      0.026020000000     0.550100000000     0.353360000000    -0.092815   
C281     C      0.054990000000     0.588630000000     0.232970000000    -0.00940807 
C282     C      0.030420000000     0.597020000000     0.176330000000    -0.100133   
C283     C      0.022390000000     0.581210000000     0.250310000000    -0.0310741  
C284     C      0.025650000000     0.590210000000     0.142620000000     0.0813001  
C285     C      0.064260000000     0.560330000000     0.148220000000     0.173299   
C286     C      0.024060000000     0.580390000000     0.284620000000    -0.0349831  
C287     C      0.058490000000     0.580850000000     0.338860000000     0.0506466  
C288     C      0.051670000000     0.584420000000     0.196640000000     0.066384   
C289     C      0.860710000000     0.372890000000     0.993920000000    -0.121166   
C290     C      0.660960000000     0.158550000000     0.962890000000     0.0741542  
C291     C      0.667180000000     0.191470000000     0.011400000000     0.0731171  
C292     C      0.691840000000     0.192260000000     0.949490000000    -0.0923562  
C293     C      0.778450000000     0.264650000000     0.949240000000    -0.0348043  
C294     C      0.812920000000     0.300430000000     0.947380000000    -0.0304777  
C295     C      0.743020000000     0.262660000000     0.955060000000    -0.0040582  
C296     C      0.697170000000     0.225510000000     0.998570000000    -0.0888318  
C297     C      0.812210000000     0.334580000000     0.950710000000    -0.012032   
C298     C      0.869500000000     0.400870000000     0.939750000000    -0.101907   
C299     C      0.776220000000     0.332620000000     0.953270000000    -0.0300141  
C300     C      0.903440000000     0.433680000000     0.951660000000     0.0796401  
C301     C      0.893890000000     0.406120000000     0.005480000000     0.171531   
C302     C      0.741890000000     0.296930000000     0.955520000000    -0.035219   
C303     C      0.709780000000     0.226320000000     0.967310000000     0.0503696  
C304     C      0.848440000000     0.369880000000     0.961030000000     0.0674663  
C305     C      0.355760000000     0.905430000000     0.086040000000    -0.120194   
C306     C      0.162930000000     0.667070000000     0.078480000000     0.0726382  
C307     C      0.128660000000     0.700090000000     0.064190000000     0.0754328  
C308     C      0.198190000000     0.701830000000     0.081250000000    -0.0934649  
C309     C      0.265140000000     0.783900000000     0.097350000000    -0.0344686  
C310     C      0.301520000000     0.817430000000     0.094790000000    -0.0313068  
C311     C      0.237050000000     0.772670000000     0.071200000000    -0.00555432 
C312     C      0.163680000000     0.735460000000     0.065800000000    -0.0950576  
C313     C      0.310810000000     0.839790000000     0.065750000000    -0.0106356  
C314     C      0.375890000000     0.883850000000     0.041560000000    -0.0994755  
C315     C      0.283050000000     0.828300000000     0.039370000000    -0.0307387  
C316     C      0.411420000000     0.918860000000     0.041990000000     0.0902373  
C317     C      0.390710000000     0.940730000000     0.085260000000     0.182042   
C318     C      0.246280000000     0.795150000000     0.042190000000    -0.0345264  
C319     C      0.199070000000     0.736370000000     0.073370000000     0.0509605  
C320     C      0.348130000000     0.876720000000     0.064310000000     0.0706024  
C321     C      0.697200000000     0.560580000000     0.008030000000    -0.115589   
C322     C      0.888670000000     0.509050000000     0.066180000000     0.0795486  
C323     C      0.895600000000     0.533350000000     0.011570000000     0.074764   
C324     C      0.854530000000     0.511170000000     0.068140000000    -0.0908011  
C325     C      0.773120000000     0.504780000000     0.057080000000    -0.0346318  
C326     C      0.740660000000     0.509880000000     0.055680000000    -0.0305618  
C327     C      0.807990000000     0.532320000000     0.042900000000    -0.0045621  
C328     C      0.861930000000     0.535580000000     0.012580000000    -0.0935448  
C329     C      0.742390000000     0.542700000000     0.040150000000    -0.00908557 
C330     C      0.682640000000     0.536600000000     0.063240000000    -0.0993488  
C331     C      0.777650000000     0.570730000000     0.026890000000    -0.0314356  
C332     C      0.648400000000     0.538200000000     0.059550000000     0.0869362  
C333     C      0.661990000000     0.561240000000     0.004560000000     0.169662   
C334     C      0.810020000000     0.565690000000     0.028360000000    -0.0347248  
C335     C      0.841650000000     0.525890000000     0.041380000000     0.0509388  
C336     C      0.707290000000     0.547220000000     0.037230000000     0.0665602  
C337     C      0.383850000000     0.576740000000     0.061600000000    -0.117268   
C338     C      0.148940000000     0.510980000000     0.982760000000     0.0724467  
C339     C      0.150760000000     0.525610000000     0.038450000000     0.078022   
C340     C      0.181630000000     0.506170000000     0.989300000000    -0.0908978  
C341     C      0.242010000000     0.495770000000     0.058950000000    -0.0359943  
C342     C      0.279270000000     0.503440000000     0.070410000000    -0.0311468  
C343     C      0.236700000000     0.512190000000     0.029250000000    -0.00387186 
C344     C      0.182150000000     0.520000000000     0.045940000000    -0.0890067  
C345     C      0.312370000000     0.527740000000     0.052460000000    -0.010555   
C346     C      0.360440000000     0.513470000000     0.084700000000    -0.10167    
C347     C      0.306680000000     0.542170000000     0.021730000000    -0.0316572  
C348     C      0.398900000000     0.524180000000     0.095130000000     0.0873331  
C349     C      0.422100000000     0.587290000000     0.073320000000     0.170927   
C350     C      0.269330000000     0.534460000000     0.010260000000    -0.0355471  
C351     C      0.199100000000     0.511540000000     0.021220000000     0.049241   
C352     C      0.352710000000     0.539200000000     0.066140000000     0.064755   
C353     C      0.706860000000     0.658140000000     0.614020000000    -0.117177   
C354     C      0.904810000000     0.903650000000     0.597060000000     0.0779017  
C355     C      0.930640000000     0.872090000000     0.569080000000     0.0802103  
C356     C      0.873830000000     0.868280000000     0.607310000000    -0.0930401  
C357     C      0.796850000000     0.794720000000     0.597030000000    -0.0345834  
C358     C      0.761950000000     0.759410000000     0.596110000000    -0.0319266  
C359     C      0.833100000000     0.796370000000     0.601610000000    -0.00466108 
C360     C      0.899880000000     0.836150000000     0.578750000000    -0.0900799  
C361     C      0.762260000000     0.724800000000     0.599980000000    -0.0103921  
C362     C      0.710250000000     0.684200000000     0.559500000000    -0.10354    
C363     C      0.798080000000     0.726150000000     0.606520000000    -0.0316294  
C364     C      0.675050000000     0.651600000000     0.550970000000     0.0840641  
C365     C      0.670990000000     0.625070000000     0.604780000000     0.169088   
C366     C      0.833250000000     0.761650000000     0.607230000000    -0.0348236  
C367     C      0.870030000000     0.833850000000     0.596980000000     0.051231   
C368     C      0.726120000000     0.688280000000     0.591380000000     0.0660513  
C369     C      0.181190000000     0.197150000000     0.493180000000    -0.118268   
C370     C      0.430270000000     0.380370000000     0.487810000000     0.0785475  
C371     C      0.393950000000     0.408520000000     0.503190000000     0.0812586  
C372     C      0.395850000000     0.346390000000     0.479510000000    -0.0940966  
C373     C      0.321860000000     0.270870000000     0.491840000000    -0.0338524  
C374     C      0.286800000000     0.235620000000     0.491270000000    -0.0316232  
C375     C      0.322800000000     0.304830000000     0.480440000000    -0.00449651 
C376     C      0.358870000000     0.374840000000     0.495190000000    -0.0908158  
C377     C      0.251700000000     0.233360000000     0.479340000000    -0.00930853 
C378     C      0.210220000000     0.161080000000     0.477140000000    -0.0996228  
C379     C      0.252870000000     0.267050000000     0.466750000000    -0.0315304  
C380     C      0.175650000000     0.127030000000     0.484190000000     0.0825824  
C381     C      0.146550000000     0.162610000000     0.499630000000     0.168966   
C382     C      0.287980000000     0.302370000000     0.467360000000    -0.0340404  
C383     C      0.359510000000     0.342730000000     0.484270000000     0.0525076  
C384     C      0.213780000000     0.196730000000     0.482700000000     0.064975   
C385     C      0.658870000000     0.949570000000     0.576140000000    -0.11959    
C386     C      0.861100000000     0.950540000000     0.502720000000     0.0786276  
C387     C      0.888840000000     0.018330000000     0.501060000000     0.0780279  
C388     C      0.824140000000     0.945450000000     0.507000000000    -0.0936029  
C389     C      0.768900000000     0.996850000000     0.505010000000    -0.031044   
C390     C      0.738300000000     0.998190000000     0.518530000000    -0.0307676  
C391     C      0.783070000000     0.973780000000     0.519630000000    -0.00460326 
C392     C      0.852410000000     0.014310000000     0.504860000000    -0.0893759  
C393     C      0.721390000000     0.976610000000     0.547020000000    -0.00633704 
C394     C      0.696750000000     0.017830000000     0.566200000000    -0.0942207  
C395     C      0.734180000000     0.951960000000     0.560610000000    -0.0317473  
C396     C      0.667740000000     0.021840000000     0.579520000000     0.0789839  
C397     C      0.630370000000     0.954460000000     0.590110000000     0.171822   
C398     C      0.764730000000     0.950530000000     0.547000000000    -0.032553   
C399     C      0.819850000000     0.977650000000     0.509200000000     0.0531877  
C400     C      0.691760000000     0.981250000000     0.563140000000     0.0675398  
C401     C      0.168690000000     0.973870000000     0.518680000000    -0.119322   
C402     C      0.380790000000     0.952700000000     0.541660000000     0.0900993  
C403     C      0.398210000000     0.002940000000     0.502000000000     0.0861137  
C404     C      0.343490000000     0.947910000000     0.542690000000    -0.0880179  
C405     C      0.282790000000     0.968030000000     0.560070000000    -0.0346247  
C406     C      0.251000000000     0.972940000000     0.564770000000    -0.0279107  
C407     C      0.297320000000     0.972620000000     0.528640000000    -0.00200735 
C408     C      0.361380000000     0.999010000000     0.502460000000    -0.093998   
C409     C      0.233030000000     0.982290000000     0.538110000000    -0.010569   
C410     C      0.198960000000     0.009430000000     0.567910000000    -0.101847   
C411     C      0.247140000000     0.986110000000     0.506670000000    -0.0299612  
C412     C      0.168190000000     0.016830000000     0.569060000000     0.0876534  
C413     C      0.139500000000     0.983340000000     0.519250000000     0.182138   
C414     C      0.278520000000     0.980930000000     0.501950000000    -0.0349714  
C415     C      0.334020000000     0.972420000000     0.524060000000     0.0567368  
C416     C      0.199350000000     0.987750000000     0.542370000000     0.0702955  
C417     C      0.011210000000     0.845520000000     0.477980000000    -0.120424   
C418     C      0.027440000000     0.655120000000     0.459960000000     0.0763928  
C419     C      0.985720000000     0.633490000000     0.504570000000     0.0811995  
C420     C      0.012730000000     0.679000000000     0.448780000000    -0.089392   
C421     C      0.980260000000     0.731980000000     0.430570000000    -0.0347704  
C422     C      0.979130000000     0.766280000000     0.428150000000    -0.0309828  
C423     C      0.975000000000     0.712010000000     0.460900000000    -0.00344521 
C424     C      0.968370000000     0.654410000000     0.492790000000    -0.091444   
C425     C      0.972130000000     0.780580000000     0.455880000000    -0.0114018  
C426     C      0.954420000000     0.831410000000     0.443290000000    -0.101343   
C427     C      0.963590000000     0.759140000000     0.485190000000    -0.03103    
C428     C      0.959390000000     0.867040000000     0.451130000000     0.0827661  
C429     C      0.014610000000     0.880170000000     0.486790000000     0.177394   
C430     C      0.965420000000     0.725670000000     0.487830000000    -0.0339751  
C431     C      0.984080000000     0.680330000000     0.466330000000     0.0511036  
C432     C      0.980400000000     0.820440000000     0.457120000000     0.0684225  
C433     C      0.017660000000     0.181920000000     0.563390000000    -0.117811   
C434     C      0.067840000000     0.405210000000     0.521290000000     0.0792879  
C435     C      0.067020000000     0.414990000000     0.577870000000     0.0786148  
C436     C      0.073470000000     0.374140000000     0.528620000000    -0.0962196  
C437     C      0.098630000000     0.316550000000     0.554530000000    -0.0334129  
C438     C      0.093840000000     0.279740000000     0.558320000000    -0.0306629  
C439     C      0.072860000000     0.325260000000     0.568800000000    -0.00621472 
C440     C      0.071800000000     0.383500000000     0.586050000000    -0.0959642  
C441     C      0.062720000000     0.250920000000     0.575850000000    -0.00906562 
C442     C      0.081640000000     0.200790000000     0.587280000000    -0.0975834  
C443     C      0.037790000000     0.259980000000     0.591030000000    -0.0319029  
C444     C      0.072960000000     0.162720000000     0.585550000000     0.0980049  
C445     C      0.009580000000     0.143920000000     0.561760000000     0.1789     
C446     C      0.043040000000     0.296920000000     0.587790000000    -0.0332128  
C447     C      0.074100000000     0.362150000000     0.561230000000     0.0535957  
C448     C      0.053990000000     0.210690000000     0.575720000000     0.0722331  
C449     C      0.013680000000     0.031300000000     0.867900000000    -0.117487   
C450     C      0.051090000000     0.007810000000     0.664970000000     0.0807866  
C451     C      0.985830000000     0.995000000000     0.659870000000     0.0807664  
C452     C      0.048650000000     0.002000000000     0.698850000000    -0.0935518  
C453     C      0.037160000000     0.981770000000     0.770490000000    -0.034307   
C454     C      0.039320000000     0.985170000000     0.804530000000    -0.0314839  
C455     C      0.012270000000     0.990430000000     0.750430000000    -0.00463112 
C456     C      0.981850000000     0.987470000000     0.693520000000    -0.0935302  
C457     C      0.015680000000     0.996070000000     0.819700000000    -0.00895255 
C458     C      0.033630000000     0.984380000000     0.877890000000    -0.100441   
C459     C      0.988750000000     0.001900000000     0.799820000000    -0.0313616  
C460     C      0.039700000000     0.993330000000     0.911090000000     0.0836355  
C461     C      0.019330000000     0.039350000000     0.901400000000     0.168157   
C462     C      0.987590000000     0.999860000000     0.765780000000    -0.0331328  
C463     C      0.013940000000     0.992410000000     0.713860000000     0.0527807  
C464     C      0.020470000000     0.003440000000     0.855660000000     0.0652176  
C465     C      0.074060000000     0.043160000000     0.199900000000    -0.119      
C466     C      0.051160000000     0.062820000000     0.403090000000     0.0865734  
C467     C      0.983770000000     0.015850000000     0.398610000000     0.0828065  
C468     C      0.052950000000     0.066150000000     0.369170000000    -0.0928148  
C469     C      0.058870000000     0.036830000000     0.305660000000    -0.0322205  
C470     C      0.063230000000     0.030650000000     0.273390000000    -0.0297833  
C471     C      0.025030000000     0.036470000000     0.314590000000    -0.00373919 
C472     C      0.984690000000     0.017770000000     0.364390000000    -0.0917624  
C473     C      0.033720000000     0.023570000000     0.249270000000    -0.00795717 
C474     C      0.008550000000     0.989000000000     0.196280000000    -0.0989201  
C475     C      0.999700000000     0.022860000000     0.258060000000    -0.0290071  
C476     C      0.012190000000     0.987490000000     0.162830000000     0.0969818  
C477     C      0.077090000000     0.040900000000     0.166180000000     0.181967   
C478     C      0.995400000000     0.029280000000     0.290420000000    -0.0320242  
C479     C      0.020330000000     0.041270000000     0.349470000000     0.055075   
C480     C      0.038930000000     0.018290000000     0.214790000000     0.0731801  
C481     C      0.720600000000     0.707620000000     0.059820000000    -0.118246   
C482     C      0.899160000000     0.918870000000     0.984780000000     0.0849642  
C483     C      0.938020000000     0.890300000000     0.979500000000     0.0797339  
C484     C      0.865480000000     0.882760000000     0.985480000000    -0.0938578  
C485     C      0.798600000000     0.799530000000     0.978670000000    -0.0343738  
C486     C      0.765920000000     0.766270000000     0.989540000000    -0.0306509  
C487     C      0.835170000000     0.812260000000     0.994760000000    -0.00608643 
C488     C      0.905040000000     0.853630000000     0.980910000000    -0.0962639  
C489     C      0.769100000000     0.745350000000     0.016950000000    -0.0100259  
C490     C      0.709110000000     0.683820000000     0.005050000000    -0.10208    
C491     C      0.805700000000     0.757870000000     0.033030000000    -0.0317105  
C492     C      0.671090000000     0.657250000000     0.012400000000     0.0889745  
C493     C      0.681660000000     0.680180000000     0.066760000000     0.172664   
C494     C      0.838690000000     0.791000000000     0.021790000000    -0.0332334  
C495     C      0.868730000000     0.849790000000     0.985760000000     0.054891   
C496     C      0.733520000000     0.710810000000     0.028130000000     0.067958   
C497     C      0.200560000000     0.212520000000     0.053490000000    -0.120838   
C498     C      0.373470000000     0.451520000000     0.027170000000     0.0806612  
C499     C      0.401390000000     0.428560000000     0.991480000000     0.0798522  
C500     C      0.337150000000     0.418580000000     0.022700000000    -0.0961751  
C501     C      0.284240000000     0.323230000000     0.983660000000    -0.0350695  
C502     C      0.253980000000     0.285690000000     0.989140000000    -0.0314407  
C503     C      0.300740000000     0.348980000000     0.009660000000    -0.00537612 
C504     C      0.365600000000     0.394720000000     0.986890000000    -0.0925016  
C505     C      0.239750000000     0.273340000000     0.020700000000    -0.0113321  
C506     C      0.172330000000     0.224480000000     0.003700000000    -0.105768   
C507     C      0.256980000000     0.298770000000     0.046810000000    -0.0311483  
C508     C      0.137600000000     0.191010000000     0.009550000000     0.0868781  
C509     C      0.164790000000     0.178820000000     0.059140000000     0.172293   
C510     C      0.287210000000     0.336170000000     0.041360000000    -0.033988   
C511     C      0.333970000000     0.388300000000     0.004890000000     0.0531358  
C512     C      0.204260000000     0.235680000000     0.025700000000     0.068659   
C513     C      0.888840000000     0.050390000000     0.114110000000    -0.116749   
C514     C      0.661250000000     0.044710000000     0.100110000000     0.0802311  
C515     C      0.681100000000     0.069010000000     0.046570000000     0.0811145  
C516     C      0.695670000000     0.043240000000     0.106830000000    -0.0898566  
C517     C      0.778020000000     0.052790000000     0.116850000000    -0.0338631  
C518     C      0.809630000000     0.046170000000     0.120110000000    -0.0309122  
C519     C      0.756760000000     0.047250000000     0.086660000000    -0.00349818 
C520     C      0.715820000000     0.068510000000     0.052590000000    -0.0914838  
C521     C      0.820580000000     0.033650000000     0.093300000000    -0.00874345 
C522     C      0.852300000000     0.996230000000     0.079110000000    -0.0989242  
C523     C      0.799230000000     0.028180000000     0.063250000000    -0.0310623  
C524     C      0.885280000000     0.992570000000     0.077980000000     0.0840778  
C525     C      0.921510000000     0.045410000000     0.113410000000     0.165213   
C526     C      0.767790000000     0.034620000000     0.060040000000    -0.0340591  
C527     C      0.722820000000     0.053820000000     0.082420000000     0.0522272  
C528     C      0.854200000000     0.026530000000     0.095940000000     0.0644336  
C529     C      0.371070000000     0.068330000000     0.012950000000    -0.11796    
C530     C      0.174760000000     0.107840000000     0.992120000000     0.0784954  
C531     C      0.172530000000     0.075420000000     0.042620000000     0.085934   
C532     C      0.214190000000     0.118760000000     0.989680000000    -0.0910516  
C533     C      0.279300000000     0.096200000000     0.985040000000    -0.0343164  
C534     C      0.313820000000     0.094740000000     0.985190000000    -0.0303166  
C535     C      0.272480000000     0.113450000000     0.010840000000    -0.00333368 
C536     C      0.211950000000     0.086870000000     0.041520000000    -0.0862746  
C537     C      0.342460000000     0.111230000000     0.010780000000    -0.0102669  
C538     C      0.414640000000     0.136450000000     0.017790000000    -0.101487   
C539     C      0.336610000000     0.130510000000     0.035530000000    -0.0292799  
C540     C      0.445980000000     0.129900000000     0.022890000000     0.0834306  
C541     C      0.402960000000     0.062340000000     0.018400000000     0.174056   
C542     C      0.301730000000     0.131200000000     0.035770000000    -0.0350313  
C543     C      0.232850000000     0.107520000000     0.014320000000     0.0526463  
C544     C      0.376620000000     0.105430000000     0.013400000000     0.0671972  
C545     C      0.042270000000     0.873470000000     0.065010000000    -0.11719    
C546     C      0.014910000000     0.664640000000     0.973430000000     0.0695509  
C547     C      0.082600000000     0.702100000000     0.987400000000     0.0756942  
C548     C      0.009470000000     0.695160000000     0.980290000000    -0.0940253  
C549     C      0.007790000000     0.768910000000     0.990800000000    -0.0361674  
C550     C      0.999860000000     0.795100000000     0.004860000000    -0.0318172  
C551     C      0.033900000000     0.758750000000     0.006710000000    -0.00552227 
C552     C      0.078130000000     0.733160000000     0.994940000000    -0.0940219  
C553     C      0.017620000000     0.811630000000     0.035330000000    -0.00968094 
C554     C      0.974710000000     0.839270000000     0.046280000000    -0.0981914  
C555     C      0.043350000000     0.801010000000     0.051370000000    -0.0319726  
C556     C      0.970970000000     0.870080000000     0.055930000000     0.0779251  
C557     C      0.037640000000     0.903730000000     0.074840000000     0.165568   
C558     C      0.051500000000     0.775110000000     0.037200000000    -0.0347019  
C559     C      0.040840000000     0.729230000000     0.992970000000     0.0493766  
C560     C      0.011210000000     0.841500000000     0.049310000000     0.0624403  
C561     C      0.025290000000     0.370860000000     0.060050000000    -0.115903   
C562     C      0.982380000000     0.142750000000     0.991580000000     0.0792812  
C563     C      0.975220000000     0.137500000000     0.048950000000     0.07984    
C564     C      0.982740000000     0.177780000000     0.990700000000    -0.090461   
C565     C      0.022960000000     0.263500000000     0.004930000000    -0.0346887  
C566     C      0.035060000000     0.302270000000     0.008810000000    -0.0311352  
C567     C      0.990920000000     0.234510000000     0.021520000000    -0.00324361 
C568     C      0.974680000000     0.171750000000     0.048930000000    -0.0901116  
C569     C      0.015320000000     0.313200000000     0.029260000000    -0.00926747 
C570     C      0.034670000000     0.376710000000     0.002190000000    -0.102433   
C571     C      0.983260000000     0.284220000000     0.045920000000    -0.0298839  
C572     C      0.039570000000     0.413300000000     0.002430000000     0.0869985  
C573     C      0.030260000000     0.408140000000     0.059670000000     0.173876   
C574     C      0.971240000000     0.245360000000     0.042120000000    -0.0338311  
C575     C      0.981110000000     0.193700000000     0.019990000000     0.0515532  
C576     C      0.026040000000     0.354310000000     0.030870000000     0.0672428  
Co1      Co     0.039080000000     0.075630000000     0.074750000000     1.14991    
Co2      Co     0.046060000000     0.999460000000     0.019540000000     0.918465   
Co3      Co     0.043350000000     0.077970000000     0.997350000000     1.14451    
Co4      Co     0.992260000000     0.989290000000     0.051400000000     1.1076     
Co5      Co     0.062850000000     0.009760000000     0.499230000000     1.04422    
Co6      Co     0.982820000000     0.023720000000     0.552620000000     1.09834    
Co7      Co     0.988560000000     0.972760000000     0.503900000000     1.04227    
Co8      Co     0.075350000000     0.057770000000     0.565560000000     1.11508    
Co9      Co     0.028560000000     0.513390000000     0.976720000000     1.07932    
Co10     Co     0.017110000000     0.585230000000     0.029830000000     1.05898    
Co11     Co     0.004630000000     0.503010000000     0.052370000000     1.10063    
Co12     Co     0.094290000000     0.592980000000     0.007440000000     1.07182    
Co13     Co     0.037500000000     0.493380000000     0.482040000000     1.1495     
Co14     Co     0.041230000000     0.572030000000     0.531580000000     0.909245   
Co15     Co     0.015780000000     0.489970000000     0.558810000000     1.14024    
Co16     Co     0.083300000000     0.579660000000     0.504320000000     0.856465   
Co17     Co     0.496790000000     0.056980000000     0.086880000000     1.17398    
Co18     Co     0.560270000000     0.045420000000     0.010270000000     0.921879   
Co19     Co     0.556040000000     0.117830000000     0.035040000000     1.10017    
Co20     Co     0.537930000000     0.014250000000     0.063550000000     1.02243    
Co21     Co     0.495950000000     0.012980000000     0.583810000000     1.04677    
Co22     Co     0.588270000000     0.024310000000     0.541330000000     1.12076    
Co23     Co     0.528410000000     0.051890000000     0.515360000000     1.13432    
Co24     Co     0.523660000000     0.972550000000     0.592640000000     0.924639   
Co25     Co     0.525120000000     0.505260000000     0.034690000000     1.07912    
Co26     Co     0.546840000000     0.604930000000     0.074410000000     1.15551    
Co27     Co     0.491130000000     0.509810000000     0.082360000000     0.986817   
Co28     Co     0.552000000000     0.581840000000     0.002030000000     1.06807    
Co29     Co     0.549060000000     0.475220000000     0.527520000000     1.17173    
Co30     Co     0.538590000000     0.545740000000     0.576630000000     0.962791   
Co31     Co     0.493810000000     0.487780000000     0.567430000000     0.930384   
Co32     Co     0.565930000000     0.559870000000     0.504780000000     1.13049    
H1       H      0.534280000000     0.473780000000     0.661150000000     0.0468048  
H2       H      0.498580000000     0.551030000000     0.921590000000     0.0256589  
H3       H      0.586070000000     0.507880000000     0.777530000000     0.0476273  
H4       H      0.469870000000     0.505190000000     0.818680000000     0.0403481  
H5       H      0.501180000000     0.546520000000     0.863840000000     0.0583419  
H6       H      0.481130000000     0.514210000000     0.760250000000     0.0459513  
H7       H      0.534070000000     0.460250000000     0.880920000000     0.0818351  
H8       H      0.534800000000     0.464740000000     0.720400000000     0.064198   
H9       H      0.549940000000     0.577300000000     0.731160000000     0.0605832  
H10      H      0.576050000000     0.500590000000     0.836630000000     0.0469705  
H11      H      0.550090000000     0.586010000000     0.671950000000     0.0387586  
H12      H      0.505680000000     0.529790000000     0.418890000000     0.0277054  
H13      H      0.559040000000     0.496740000000     0.151460000000     0.0277346  
H14      H      0.481300000000     0.492170000000     0.311850000000     0.0403805  
H15      H      0.607750000000     0.518390000000     0.271210000000     0.0409753  
H16      H      0.558860000000     0.479550000000     0.208960000000     0.058378   
H17      H      0.593950000000     0.500370000000     0.329020000000     0.0394166  
H18      H      0.569460000000     0.586620000000     0.234170000000     0.083428   
H19      H      0.506400000000     0.528400000000     0.360370000000     0.056092   
H20      H      0.554500000000     0.453220000000     0.370820000000     0.0542401  
H21      H      0.496250000000     0.511980000000     0.254800000000     0.0439698  
H22      H      0.554280000000     0.456090000000     0.430170000000     0.0225773  
H23      H      0.533240000000     0.641480000000     0.577660000000     0.0384198  
H24      H      0.576650000000     0.925340000000     0.511740000000     0.039082   
H25      H      0.469020000000     0.709000000000     0.556010000000     0.0418713  
H26      H      0.538440000000     0.805740000000     0.468660000000     0.041051   
H27      H      0.568490000000     0.863410000000     0.501470000000     0.0620291  
H28      H      0.539310000000     0.745440000000     0.471080000000     0.0404786  
H29      H      0.447150000000     0.809330000000     0.523040000000     0.0793152  
H30      H      0.521710000000     0.694720000000     0.570510000000     0.0585069  
H31      H      0.498710000000     0.672810000000     0.466940000000     0.0547792  
H32      H      0.468920000000     0.769410000000     0.554140000000     0.0461386  
H33      H      0.510520000000     0.619040000000     0.474990000000     0.0250015  
H34      H      0.560740000000     0.160000000000     0.547840000000     0.0298605  
H35      H      0.452080000000     0.369760000000     0.593110000000     0.0372307  
H36      H      0.552920000000     0.241980000000     0.625740000000     0.048269   
H37      H      0.450490000000     0.262800000000     0.569300000000     0.0377807  
H38      H      0.444550000000     0.306520000000     0.600520000000     0.058582   
H39      H      0.448520000000     0.201920000000     0.563180000000     0.0407878  
H40      H      0.569860000000     0.357990000000     0.606190000000     0.0786122  
H41      H      0.557660000000     0.216030000000     0.562360000000     0.058099   
H42      H      0.448390000000     0.141950000000     0.607490000000     0.063315   
H43      H      0.553880000000     0.301950000000     0.633930000000     0.0433234  
H44      H      0.452820000000     0.086070000000     0.593610000000     0.0469144  
H45      H      0.553770000000     0.133260000000     0.934600000000     0.0258392  
H46      H      0.574490000000     0.010540000000     0.686510000000     0.0344891  
H47      H      0.545160000000     0.129140000000     0.822080000000     0.0410289  
H48      H      0.531440000000     0.008620000000     0.782510000000     0.0422422  
H49      H      0.574590000000     0.023380000000     0.743380000000     0.0598446  
H50      H      0.519580000000     0.012010000000     0.838720000000     0.0455246  
H51      H      0.542800000000     0.108590000000     0.714900000000     0.0808901  
H52      H      0.560940000000     0.133690000000     0.876370000000     0.0547597  
H53      H      0.479950000000     0.011030000000     0.875720000000     0.0611191  
H54      H      0.561960000000     0.127310000000     0.766660000000     0.0422765  
H55      H      0.476570000000     0.011540000000     0.934410000000     0.0435568  
H56      H      0.527340000000     0.965240000000     0.159500000000     0.0341231  
H57      H      0.491030000000     0.991770000000     0.432520000000     0.0295938  
H58      H      0.495090000000     0.951190000000     0.270410000000     0.0431684  
H59      H      0.607340000000     0.052380000000     0.335260000000     0.0437289  
H60      H      0.490890000000     0.985940000000     0.374110000000     0.0584539  
H61      H      0.606010000000     0.057190000000     0.275390000000     0.0427945  
H62      H      0.609710000000     0.010620000000     0.383560000000     0.0795027  
H63      H      0.534820000000     0.954240000000     0.218360000000     0.0578621  
H64      H      0.558140000000     0.068490000000     0.236470000000     0.0578271  
H65      H      0.496220000000     0.946440000000     0.330480000000     0.0415063  
H66      H      0.549710000000     0.078220000000     0.178450000000     0.0324705  
H67      H      0.480170000000     0.628500000000     0.962520000000     0.0274506  
H68      H      0.513080000000     0.900450000000     0.071920000000     0.0341889  
H69      H      0.527830000000     0.776510000000     0.946220000000     0.0427726  
H70      H      0.440400000000     0.779210000000     0.025900000000     0.0406262  
H71      H      0.491880000000     0.836480000000     0.053920000000     0.0595289  
H72      H      0.440480000000     0.719510000000     0.018090000000     0.0513382  
H73      H      0.498700000000     0.875620000000     0.953500000000     0.0786056  
H74      H      0.459730000000     0.676030000000     0.948120000000     0.0572327  
H75      H      0.535060000000     0.746410000000     0.027400000000     0.0645631  
H76      H      0.528550000000     0.836370000000     0.954190000000     0.0433527  
H77      H      0.554520000000     0.699770000000     0.041060000000     0.036731   
H78      H      0.533190000000     0.406020000000     0.029170000000     0.0479999  
H79      H      0.504790000000     0.138350000000     0.140040000000     0.0252959  
H80      H      0.587390000000     0.363770000000     0.122090000000     0.0419419  
H81      H      0.478980000000     0.228320000000     0.120700000000     0.0392574  
H82      H      0.500210000000     0.193050000000     0.154340000000     0.058513   
H83      H      0.464780000000     0.279940000000     0.109670000000     0.0418277  
H84      H      0.605570000000     0.267640000000     0.104120000000     0.0785974  
H85      H      0.542150000000     0.355300000000     0.054440000000     0.0608858  
H86      H      0.490190000000     0.361150000000     0.141500000000     0.0558196  
H87      H      0.602040000000     0.312400000000     0.134940000000     0.0408688  
H88      H      0.482300000000     0.413130000000     0.115770000000     0.0237753  
H89      H      0.926120000000     0.418210000000     0.447010000000     0.0236051  
H90      H      0.610060000000     0.155110000000     0.492230000000     0.0221985  
H91      H      0.832150000000     0.288630000000     0.458790000000     0.0425443  
H92      H      0.719260000000     0.274660000000     0.516270000000     0.0416359  
H93      H      0.663780000000     0.218570000000     0.478720000000     0.0583431  
H94      H      0.778790000000     0.337830000000     0.512800000000     0.0432005  
H95      H      0.745620000000     0.184520000000     0.516310000000     0.0825674  
H96      H      0.859980000000     0.363410000000     0.438000000000     0.0563569  
H97      H      0.846610000000     0.351880000000     0.542390000000     0.061689   
H98      H      0.772850000000     0.225360000000     0.462640000000     0.0444131  
H99      H      0.912320000000     0.405330000000     0.550650000000     0.0308375  
H100     H      0.131570000000     0.643750000000     0.596410000000     0.0417723  
H101     H      0.429610000000     0.893700000000     0.631490000000     0.0354301  
H102     H      0.227010000000     0.806750000000     0.560060000000     0.0437317  
H103     H      0.302740000000     0.801510000000     0.659620000000     0.0404772  
H104     H      0.365000000000     0.839170000000     0.632600000000     0.0640468  
H105     H      0.248580000000     0.741900000000     0.637380000000     0.0410873  
H106     H      0.317260000000     0.914260000000     0.628960000000     0.0751844  
H107     H      0.177360000000     0.702890000000     0.624080000000     0.0595417  
H108     H      0.227940000000     0.753730000000     0.531580000000     0.0584289  
H109     H      0.281470000000     0.866220000000     0.582050000000     0.0382818  
H110     H      0.181470000000     0.694230000000     0.504520000000     0.0346414  
H111     H      0.659120000000     0.524230000000     0.569210000000     0.0543687  
H112     H      0.935060000000     0.536670000000     0.484270000000     0.0322152  
H113     H      0.795030000000     0.578160000000     0.571190000000     0.0429234  
H114     H      0.808360000000     0.512250000000     0.477920000000     0.0388416  
H115     H      0.879450000000     0.544900000000     0.479670000000     0.0577507  
H116     H      0.758040000000     0.530180000000     0.474480000000     0.0401737  
H117     H      0.850810000000     0.500320000000     0.578070000000     0.0806301  
H118     H      0.723610000000     0.533090000000     0.571600000000     0.0651253  
H119     H      0.741510000000     0.584670000000     0.474550000000     0.0542299  
H120     H      0.845470000000     0.560280000000     0.574650000000     0.045487   
H121     H      0.675510000000     0.575760000000     0.473240000000     0.0213453  
H122     H      0.177720000000     0.572770000000     0.546580000000     0.0327992  
H123     H      0.440760000000     0.554320000000     0.549510000000     0.0345696  
H124     H      0.232220000000     0.499410000000     0.586220000000     0.0411963  
H125     H      0.317480000000     0.505560000000     0.499960000000     0.0401417  
H126     H      0.380350000000     0.552950000000     0.535420000000     0.0589997  
H127     H      0.260440000000     0.512020000000     0.484500000000     0.0406476  
H128     H      0.317990000000     0.448160000000     0.591630000000     0.0791401  
H129     H      0.229150000000     0.558550000000     0.561580000000     0.0571712  
H130     H      0.184390000000     0.473450000000     0.486210000000     0.0551379  
H131     H      0.289240000000     0.492760000000     0.601660000000     0.0424299  
H132     H      0.132730000000     0.487950000000     0.471870000000     0.0228378  
H133     H      0.133650000000     0.617360000000     0.909330000000     0.0242329  
H134     H      0.070900000000     0.523230000000     0.645340000000     0.0274379  
H135     H      0.033390000000     0.613520000000     0.792390000000     0.0413524  
H136     H      0.126390000000     0.586020000000     0.741690000000     0.0382075  
H137     H      0.084540000000     0.540520000000     0.702020000000     0.0567847  
H138     H      0.128690000000     0.590540000000     0.801140000000     0.038981   
H139     H      0.056940000000     0.630100000000     0.681710000000     0.0781129  
H140     H      0.140540000000     0.628580000000     0.850180000000     0.0540079  
H141     H      0.014830000000     0.567390000000     0.836220000000     0.0555546  
H142     H      0.029590000000     0.606890000000     0.733350000000     0.0440441  
H143     H      0.009140000000     0.557470000000     0.894470000000     0.0313764  
H144     H      0.001340000000     0.518220000000     0.396870000000     0.028122   
H145     H      0.008020000000     0.599590000000     0.128110000000     0.0242506  
H146     H      0.998100000000     0.573740000000     0.297140000000     0.0401342  
H147     H      0.115840000000     0.603770000000     0.238360000000     0.0421772  
H148     H      0.017130000000     0.611750000000     0.186420000000     0.0567736  
H149     H      0.118420000000     0.601340000000     0.298050000000     0.0413896  
H150     H      0.086010000000     0.556710000000     0.196980000000     0.0809071  
H151     H      0.000140000000     0.530900000000     0.338710000000     0.055277   
H152     H      0.117060000000     0.628480000000     0.349160000000     0.0559078  
H153     H      0.994990000000     0.574370000000     0.237410000000     0.0400809  
H154     H      0.117560000000     0.614350000000     0.407800000000     0.0338687  
H155     H      0.658690000000     0.192410000000     0.035830000000     0.0480596  
H156     H      0.919690000000     0.456700000000     0.934210000000     0.0257273  
H157     H      0.714900000000     0.296080000000     0.960110000000     0.0439698  
H158     H      0.840540000000     0.301350000000     0.946130000000     0.0425551  
H159     H      0.860150000000     0.399580000000     0.914120000000     0.0590165  
H160     H      0.780140000000     0.238670000000     0.949210000000     0.0424885  
H161     H      0.843750000000     0.349640000000     0.011000000000     0.0829701  
H162     H      0.710910000000     0.251070000000     0.013360000000     0.0649438  
H163     H      0.701270000000     0.191820000000     0.925350000000     0.0561246  
H164     H      0.775160000000     0.358560000000     0.956580000000     0.0434006  
H165     H      0.647120000000     0.132760000000     0.948360000000     0.0277299  
H166     H      0.101960000000     0.700330000000     0.057300000000     0.0236328  
H167     H      0.432730000000     0.922770000000     0.024660000000     0.0364402  
H168     H      0.225250000000     0.786760000000     0.021530000000     0.0403911  
H169     H      0.322460000000     0.826010000000     0.115520000000     0.0437098  
H170     H      0.370600000000     0.862140000000     0.024150000000     0.0611975  
H171     H      0.258750000000     0.766960000000     0.119890000000     0.0422574  
H172     H      0.333920000000     0.900860000000     0.103070000000     0.0838467  
H173     H      0.163220000000     0.761790000000     0.060310000000     0.054231   
H174     H      0.224930000000     0.701480000000     0.087650000000     0.0567397  
H175     H      0.289490000000     0.845420000000     0.016930000000     0.0448433  
H176     H      0.163790000000     0.640780000000     0.083050000000     0.0360533  
H177     H      0.910620000000     0.542060000000     0.988770000000     0.0330922  
H178     H      0.630610000000     0.529760000000     0.080780000000     0.0339735  
H179     H      0.836720000000     0.587930000000     0.017820000000     0.0390893  
H180     H      0.713810000000     0.487510000000     0.065900000000     0.0410018  
H181     H      0.689680000000     0.526960000000     0.086520000000     0.0589006  
H182     H      0.770480000000     0.478690000000     0.068240000000     0.042277   
H183     H      0.715320000000     0.568140000000     0.987130000000     0.0792838  
H184     H      0.852230000000     0.545530000000     0.990860000000     0.0558508  
H185     H      0.839370000000     0.502890000000     0.090800000000     0.0568581  
H186     H      0.780260000000     0.596660000000     0.015370000000     0.041007   
H187     H      0.898950000000     0.499230000000     0.087650000000     0.0348937  
H188     H      0.139650000000     0.533330000000     0.058520000000     0.0518792  
H189     H      0.403470000000     0.502260000000     0.107500000000     0.0249223  
H190     H      0.266400000000     0.547770000000     0.987410000000     0.0401702  
H191     H      0.282240000000     0.491740000000     0.094110000000     0.0400525  
H192     H      0.337300000000     0.484340000000     0.089610000000     0.0550258  
H193     H      0.217460000000     0.478260000000     0.074120000000     0.043839   
H194     H      0.378220000000     0.598270000000     0.049900000000     0.0782997  
H195     H      0.194430000000     0.524510000000     0.070880000000     0.0617851  
H196     H      0.193680000000     0.499260000000     0.969480000000     0.0531733  
H197     H      0.331300000000     0.560260000000     0.006810000000     0.0412187  
H198     H      0.136860000000     0.508020000000     0.957800000000     0.0214725  
H199     H      0.951710000000     0.872380000000     0.553400000000     0.0420585  
H200     H      0.664250000000     0.650740000000     0.525780000000     0.0230286  
H201     H      0.860600000000     0.761850000000     0.611090000000     0.0413035  
H202     H      0.734680000000     0.759040000000     0.590680000000     0.0418948  
H203     H      0.724840000000     0.706590000000     0.541130000000     0.0582674  
H204     H      0.795390000000     0.820600000000     0.592100000000     0.0396582  
H205     H      0.719440000000     0.660340000000     0.638720000000     0.0802832  
H206     H      0.898280000000     0.810430000000     0.570090000000     0.0566783  
H207     H      0.852110000000     0.867980000000     0.622180000000     0.0546818  
H208     H      0.799030000000     0.699770000000     0.609180000000     0.0421781  
H209     H      0.905650000000     0.929490000000     0.604550000000     0.0240426  
H210     H      0.392110000000     0.432040000000     0.512950000000     0.0339863  
H211     H      0.174940000000     0.100120000000     0.481120000000     0.0332309  
H212     H      0.287760000000     0.327840000000     0.457910000000     0.0403696  
H213     H      0.286950000000     0.210430000000     0.501610000000     0.03939    
H214     H      0.234380000000     0.159420000000     0.468200000000     0.0579858  
H215     H      0.347960000000     0.271710000000     0.502570000000     0.0396464  
H216     H      0.182640000000     0.224310000000     0.496620000000     0.0786908  
H217     H      0.331480000000     0.373390000000     0.499240000000     0.0583693  
H218     H      0.397770000000     0.322730000000     0.470260000000     0.0540291  
H219     H      0.226510000000     0.266260000000     0.456830000000     0.0419231  
H220     H      0.457690000000     0.381390000000     0.484730000000     0.0231906  
H221     H      0.913690000000     0.047270000000     0.499190000000     0.0480314  
H222     H      0.672300000000     0.050660000000     0.580410000000     0.044117   
H223     H      0.775420000000     0.932860000000     0.559030000000     0.040456   
H224     H      0.728390000000     0.016750000000     0.507060000000     0.0534484  
H225     H      0.722710000000     0.043310000000     0.557860000000     0.0734409  
H226     H      0.782260000000     0.014730000000     0.483670000000     0.0453805  
H227     H      0.655180000000     0.921100000000     0.575370000000     0.078876   
H228     H      0.850330000000     0.039950000000     0.506430000000     0.0653218  
H229     H      0.799420000000     0.916620000000     0.509770000000     0.0557995  
H230     H      0.721890000000     0.935160000000     0.582660000000     0.0426527  
H231     H      0.863740000000     0.925080000000     0.502470000000     0.0328746  
H232     H      0.419110000000     0.025280000000     0.486140000000     0.0232351  
H233     H      0.168280000000     0.033070000000     0.589470000000     0.0213958  
H234     H      0.288390000000     0.984050000000     0.477340000000     0.04102    
H235     H      0.240510000000     0.969410000000     0.589210000000     0.0428277  
H236     H      0.222570000000     0.021200000000     0.586500000000     0.0595932  
H237     H      0.296580000000     0.961740000000     0.581230000000     0.0528555  
H238     H      0.168820000000     0.957800000000     0.498270000000     0.0843051  
H239     H      0.355560000000     0.018590000000     0.487440000000     0.0559451  
H240     H      0.322820000000     0.926210000000     0.558910000000     0.0574605  
H241     H      0.234380000000     0.993850000000     0.485580000000     0.043      
H242     H      0.387680000000     0.934370000000     0.557510000000     0.0389407  
H243     H      0.974480000000     0.615810000000     0.526510000000     0.0411518  
H244     H      0.938830000000     0.874910000000     0.439870000000     0.030488   
H245     H      0.962050000000     0.712430000000     0.511940000000     0.0431274  
H246     H      0.985910000000     0.782640000000     0.405300000000     0.0421394  
H247     H      0.929730000000     0.812090000000     0.427590000000     0.059281   
H248     H      0.986870000000     0.722160000000     0.409050000000     0.0396232  
H249     H      0.030180000000     0.836130000000     0.490070000000     0.0848845  
H250     H      0.944250000000     0.651790000000     0.505790000000     0.0565447  
H251     H      0.025730000000     0.697940000000     0.427950000000     0.0551671  
H252     H      0.958310000000     0.769890000000     0.506910000000     0.0434657  
H253     H      0.050750000000     0.655880000000     0.446930000000     0.0305935  
H254     H      0.064240000000     0.430120000000     0.597750000000     0.0251039  
H255     H      0.095710000000     0.156530000000     0.593960000000     0.0273928  
H256     H      0.022520000000     0.302760000000     0.598750000000     0.0418959  
H257     H      0.113240000000     0.273250000000     0.546250000000     0.0487993  
H258     H      0.109960000000     0.222430000000     0.597290000000     0.0628672  
H259     H      0.121830000000     0.337940000000     0.539770000000     0.0409371  
H260     H      0.995450000000     0.188960000000     0.555210000000     0.0826506  
H261     H      0.072580000000     0.375230000000     0.611580000000     0.0560069  
H262     H      0.075160000000     0.358330000000     0.508750000000     0.0568695  
H263     H      0.013600000000     0.238140000000     0.604660000000     0.0433213  
H264     H      0.066100000000     0.412710000000     0.495640000000     0.0207935  
H265     H      0.960660000000     0.991960000000     0.645220000000     0.0244091  
H266     H      0.049310000000     0.977390000000     0.927440000000     0.024358   
H267     H      0.968160000000     0.007180000000     0.751680000000     0.0408116  
H268     H      0.060600000000     0.980480000000     0.818650000000     0.0388146  
H269     H      0.038830000000     0.962220000000     0.869990000000     0.0565111  
H270     H      0.055800000000     0.973140000000     0.760040000000     0.0397897  
H271     H      0.005850000000     0.048430000000     0.851410000000     0.0788183  
H272     H      0.953800000000     0.978490000000     0.703360000000     0.0552451  
H273     H      0.074630000000     0.006790000000     0.713060000000     0.0555126  
H274     H      0.968950000000     0.008990000000     0.810380000000     0.0427918  
H275     H      0.078800000000     0.016110000000     0.654640000000     0.0267014  
H276     H      0.956580000000     0.995030000000     0.409480000000     0.03332    
H277     H      0.986880000000     0.965750000000     0.149070000000     0.035912   
H278     H      0.969060000000     0.028920000000     0.296430000000     0.0433194  
H279     H      0.089510000000     0.030860000000     0.267400000000     0.0450021  
H280     H      0.981510000000     0.968240000000     0.207320000000     0.0637059  
H281     H      0.081800000000     0.041080000000     0.323790000000     0.0443982  
H282     H      0.098730000000     0.064780000000     0.214240000000     0.0841248  
H283     H      0.958520000000     0.998550000000     0.350070000000     0.0578279  
H284     H      0.080560000000     0.086200000000     0.358570000000     0.0598212  
H285     H      0.976700000000     0.017980000000     0.239770000000     0.049007   
H286     H      0.077870000000     0.080400000000     0.417640000000     0.0348638  
H287     H      0.966140000000     0.892270000000     0.977950000000     0.0249238  
H288     H      0.652760000000     0.638070000000     0.992940000000     0.0367522  
H289     H      0.866660000000     0.800790000000     0.034880000000     0.0403128  
H290     H      0.737830000000     0.757330000000     0.976940000000     0.0427619  
H291     H      0.718550000000     0.684850000000     0.980560000000     0.0670007  
H292     H      0.795230000000     0.815660000000     0.957990000000     0.0415343  
H293     H      0.739270000000     0.728600000000     0.078050000000     0.0810382  
H294     H      0.908260000000     0.828560000000     0.980170000000     0.052933   
H295     H      0.837610000000     0.880720000000     0.988600000000     0.0587094  
H296     H      0.808720000000     0.742120000000     0.054170000000     0.0424007  
H297     H      0.896100000000     0.943850000000     0.987370000000     0.0350185  
H298     H      0.426300000000     0.431180000000     0.979650000000     0.040333   
H299     H      0.113830000000     0.184110000000     0.991460000000     0.0263606  
H300     H      0.300190000000     0.355000000000     0.062130000000     0.0407907  
H301     H      0.241280000000     0.266450000000     0.968610000000     0.039307   
H302     H      0.173660000000     0.242080000000     0.982360000000     0.0589373  
H303     H      0.294360000000     0.332220000000     0.959080000000     0.0403016  
H304     H      0.224960000000     0.221030000000     0.071170000000     0.079627   
H305     H      0.364030000000     0.372370000000     0.972120000000     0.05873    
H306     H      0.312660000000     0.415450000000     0.035550000000     0.0545607  
H307     H      0.246300000000     0.290190000000     0.071270000000     0.0430625  
H308     H      0.375950000000     0.472990000000     0.043420000000     0.0246985  
H309     H      0.676420000000     0.079250000000     0.022630000000     0.0309607  
H310     H      0.882430000000     0.969680000000     0.063090000000     0.0343914  
H311     H      0.751800000000     0.029210000000     0.036550000000     0.0421979  
H312     H      0.825160000000     0.050450000000     0.143720000000     0.0426916  
H313     H      0.825660000000     0.975860000000     0.065920000000     0.0589983  
H314     H      0.770520000000     0.062610000000     0.137870000000     0.0422604  
H315     H      0.890770000000     0.073090000000     0.128620000000     0.0778259  
H316     H      0.736560000000     0.078590000000     0.033430000000     0.0568364  
H317     H      0.699840000000     0.031960000000     0.130370000000     0.0571394  
H318     H      0.807010000000     0.019200000000     0.041850000000     0.0412442  
H319     H      0.640090000000     0.034530000000     0.118980000000     0.0335044  
H320     H      0.157130000000     0.058200000000     0.063660000000     0.0553403  
H321     H      0.474780000000     0.154780000000     0.027400000000     0.0249228  
H322     H      0.296960000000     0.144370000000     0.056070000000     0.0463151  
H323     H      0.317680000000     0.079790000000     0.965790000000     0.0429878  
H324     H      0.420060000000     0.165620000000     0.017890000000     0.0584366  
H325     H      0.256970000000     0.081860000000     0.965790000000     0.0431016  
H326     H      0.341920000000     0.044000000000     0.008550000000     0.0824256  
H327     H      0.225430000000     0.077770000000     0.061090000000     0.0668624  
H328     H      0.229670000000     0.135000000000     0.968360000000     0.0563602  
H329     H      0.358110000000     0.143220000000     0.055650000000     0.0416288  
H330     H      0.160850000000     0.116070000000     0.972230000000     0.0276376  
H331     H      0.111500000000     0.705570000000     0.990980000000     0.0239376  
H332     H      0.942890000000     0.868210000000     0.051070000000     0.0306621  
H333     H      0.070950000000     0.767200000000     0.050560000000     0.0393815  
H334     H      0.980420000000     0.803010000000     0.991480000000     0.0369966  
H335     H      0.949430000000     0.814470000000     0.035430000000     0.052856   
H336     H      0.993770000000     0.756910000000     0.967260000000     0.0394547  
H337     H      0.070470000000     0.875510000000     0.069040000000     0.0793534  
H338     H      0.103460000000     0.759480000000     0.003650000000     0.0531451  
H339     H      0.980230000000     0.690930000000     0.977880000000     0.0530231  
H340     H      0.057060000000     0.812450000000     0.075110000000     0.0421216  
H341     H      0.989280000000     0.637930000000     0.965660000000     0.0258254  
H342     H      0.973090000000     0.122800000000     0.072340000000     0.0366958  
H343     H      0.045410000000     0.428970000000     0.979170000000     0.0211503  
H344     H      0.946420000000     0.223760000000     0.055260000000     0.0428538  
H345     H      0.060140000000     0.323790000000     0.995880000000     0.0388887  
H346     H      0.035760000000     0.365430000000     0.979040000000     0.0570221  
H347     H      0.039490000000     0.256310000000     0.989600000000     0.0415559  
H348     H      0.019170000000     0.354350000000     0.082820000000     0.0812527  
H349     H      0.972700000000     0.182460000000     0.072060000000     0.0611895  
H350     H      0.986600000000     0.193360000000     0.967600000000     0.0573295  
H351     H      0.966890000000     0.291510000000     0.061330000000     0.0464679  
H352     H      0.986910000000     0.132840000000     0.969000000000     0.035583   
N1       N      0.516510000000     0.509830000000     0.935330000000    -0.214019   
N2       N      0.540820000000     0.530010000000     0.662380000000    -0.17967    
N3       N      0.529820000000     0.456720000000     0.945260000000    -0.0301719  
N4       N      0.561860000000     0.550580000000     0.159200000000    -0.2203     
N5       N      0.531330000000     0.494250000000     0.428750000000    -0.210548   
N6       N      0.576110000000     0.615230000000     0.173650000000    -0.0354991  
N7       N      0.517450000000     0.903750000000     0.525000000000    -0.207029   
N8       N      0.523220000000     0.626590000000     0.526790000000    -0.201936   
N9       N      0.446570000000     0.873690000000     0.531510000000    -0.0310242  
N10      N      0.514850000000     0.400210000000     0.594700000000    -0.212764   
N11      N      0.506960000000     0.118930000000     0.569580000000    -0.201911   
N12      N      0.585970000000     0.429800000000     0.605700000000    -0.0331155  
N13      N      0.557810000000     0.051070000000     0.667680000000    -0.208095   
N14      N      0.516040000000     0.072150000000     0.938960000000    -0.199041   
N15      N      0.550790000000     0.107090000000     0.651620000000    -0.0303233  
N16      N      0.550620000000     0.005620000000     0.442450000000    -0.213851   
N17      N      0.537500000000     0.022280000000     0.164630000000    -0.201609   
N18      N      0.616950000000     0.014470000000     0.447950000000    -0.0314672  
N19      N      0.519310000000     0.925670000000     0.023530000000    -0.199527   
N20      N      0.518230000000     0.660290000000     0.003090000000    -0.204415   
N21      N      0.527080000000     0.948230000000     0.965740000000    -0.0304278  
N22      N      0.556170000000     0.170760000000     0.112210000000    -0.221351   
N23      N      0.507910000000     0.413840000000     0.070950000000    -0.194214   
N24      N      0.621610000000     0.213650000000     0.091270000000    -0.0348423  
N25      N      0.646500000000     0.133300000000     0.512610000000    -0.21808    
N26      N      0.924290000000     0.415170000000     0.499450000000    -0.211655   
N27      N      0.693660000000     0.112390000000     0.529820000000    -0.0347217  
N28      N      0.411600000000     0.935950000000     0.627290000000    -0.202855   
N29      N      0.152910000000     0.664860000000     0.548380000000    -0.183457   
N30      N      0.386020000000     0.979570000000     0.632910000000    -0.0301787  
N31      N      0.927480000000     0.516300000000     0.534520000000    -0.212873   
N32      N      0.662250000000     0.547800000000     0.520400000000    -0.209613   
N33      N      0.911330000000     0.490750000000     0.590770000000    -0.0350298  
N34      N      0.414890000000     0.501350000000     0.577830000000    -0.192286   
N35      N      0.151380000000     0.531340000000     0.508190000000    -0.203204   
N36      N      0.380120000000     0.444460000000     0.613970000000    -0.0298698  
N37      N      0.054380000000     0.565150000000     0.630370000000    -0.20978    
N38      N      0.071000000000     0.586070000000     0.906230000000    -0.204182   
N39      N      0.038430000000     0.616350000000     0.619260000000    -0.0308522  
N40      N      0.041060000000     0.570740000000     0.128700000000    -0.211463   
N41      N      0.059720000000     0.565080000000     0.406630000000    -0.200802   
N42      N      0.085810000000     0.544880000000     0.134680000000    -0.0312555  
N43      N      0.916300000000     0.436080000000     0.984060000000    -0.212412   
N44      N      0.648750000000     0.158320000000     0.993600000000    -0.203703   
N45      N      0.902550000000     0.408130000000     0.040210000000    -0.0327872  
N46      N      0.419350000000     0.946880000000     0.064070000000    -0.214347   
N47      N      0.128820000000     0.666170000000     0.068250000000    -0.204472   
N48      N      0.394800000000     0.970090000000     0.106370000000    -0.0335449  
N49      N      0.637500000000     0.549770000000     0.030490000000    -0.208286   
N50      N      0.909840000000     0.521690000000     0.038510000000    -0.202113   
N51      N      0.650780000000     0.569880000000     0.972600000000    -0.0353934  
N52      N      0.429910000000     0.559800000000     0.087440000000    -0.215428   
N53      N      0.135200000000     0.522730000000     0.006950000000    -0.20295    
N54      N      0.451750000000     0.627350000000     0.071860000000    -0.0318955  
N55      N      0.654310000000     0.622790000000     0.573480000000    -0.210025   
N56      N      0.931950000000     0.905520000000     0.576760000000    -0.199583   
N57      N      0.653170000000     0.594260000000     0.628430000000    -0.0327777  
N58      N      0.145110000000     0.127790000000     0.497320000000    -0.215441   
N59      N      0.429320000000     0.410570000000     0.500950000000    -0.201306   
N60      N      0.112390000000     0.164490000000     0.506360000000    -0.033118   
N61      N      0.633630000000     0.990330000000     0.589240000000    -0.218401   
N62      N      0.893370000000     0.986770000000     0.501570000000    -0.204399   
N63      N      0.598650000000     0.921660000000     0.605520000000    -0.0321358  
N64      N      0.138270000000     0.003140000000     0.545480000000    -0.219209   
N65      N      0.408670000000     0.981830000000     0.523130000000    -0.207446   
N66      N      0.115920000000     0.977880000000     0.489450000000    -0.033899   
N67      N      0.989300000000     0.891350000000     0.472350000000    -0.200347   
N68      N      0.015990000000     0.635110000000     0.488990000000    -0.183717   
N69      N      0.039560000000     0.898950000000     0.515200000000    -0.030091   
N70      N      0.038010000000     0.134810000000     0.571640000000    -0.215414   
N71      N      0.063260000000     0.424630000000     0.545680000000    -0.209756   
N72      N      0.970470000000     0.114910000000     0.551790000000    -0.0310643  
N73      N      0.031700000000     0.019730000000     0.922920000000    -0.214249   
N74      N      0.020480000000     0.005960000000     0.645860000000    -0.207996   
N75      N      0.015680000000     0.070900000000     0.911790000000    -0.0323583  
N76      N      0.044660000000     0.015360000000     0.147460000000    -0.215527   
N77      N      0.017670000000     0.035590000000     0.417500000000    -0.207557   
N78      N      0.114440000000     0.064880000000     0.152000000000    -0.0321207  
N79      N      0.656620000000     0.656530000000     0.042220000000    -0.217722   
N80      N      0.935280000000     0.922230000000     0.984630000000    -0.204837   
N81      N      0.667840000000     0.681790000000     0.097820000000    -0.0326441  
N82      N      0.133470000000     0.168010000000     0.036800000000    -0.221321   
N83      N      0.405850000000     0.454380000000     0.014410000000    -0.208125   
N84      N      0.161700000000     0.157370000000     0.088950000000    -0.0315681  
N85      N      0.920470000000     0.018410000000     0.093050000000    -0.21233    
N86      N      0.653220000000     0.055610000000     0.069590000000    -0.201283   
N87      N      0.954820000000     0.067980000000     0.135070000000    -0.033296   
N88      N      0.440070000000     0.093190000000     0.024990000000    -0.215573   
N89      N      0.153670000000     0.084620000000     0.017580000000    -0.19577    
N90      N      0.396280000000     0.024090000000     0.014740000000    -0.0316157  
N91      N      0.002960000000     0.903290000000     0.067370000000    -0.194659   
N92      N      0.050620000000     0.667160000000     0.979310000000    -0.202668   
N93      N      0.069340000000     0.934480000000     0.093260000000    -0.0315276  
N94      N      0.035700000000     0.428480000000     0.030390000000    -0.214942   
N95      N      0.982150000000     0.124810000000     0.021000000000    -0.201319   
N96      N      0.025140000000     0.421950000000     0.089520000000    -0.0332026  
O1       O      0.015140000000     0.100760000000     0.050890000000    -0.447806   
O2       O      0.999850000000     0.956930000000     0.000270000000    -0.453739   
O3       O      0.015280000000     0.036680000000     0.969220000000    -0.440432   
O4       O      0.951320000000     0.994800000000     0.064470000000    -0.429818   
O5       O      0.056920000000     0.017370000000     0.974570000000    -0.416158   
O6       O      0.987590000000     0.046530000000     0.093010000000    -0.42797    
O7       O      0.964140000000     0.979430000000     0.010320000000    -0.425296   
O8       O      0.997890000000     0.082720000000     0.999400000000    -0.413534   
O9       O      0.062390000000     0.053590000000     0.101790000000    -0.439518   
O10      O      0.094470000000     0.038430000000     0.035340000000    -0.407948   
O11      O      0.072370000000     0.125700000000     0.017280000000    -0.484134   
O12      O      0.969620000000     0.937190000000     0.061970000000    -0.398214   
O13      O      0.034760000000     0.969140000000     0.060500000000    -0.424004   
O14      O      0.091590000000     0.110110000000     0.062140000000    -0.431141   
O15      O      0.012170000000     0.997140000000     0.097480000000    -0.42316    
O16      O      0.095590000000     0.079970000000     0.996890000000    -0.405587   
O17      O      0.026780000000     0.039690000000     0.036320000000    -0.594934   
O18      O      0.052490000000     0.030820000000     0.461600000000    -0.464861   
O19      O      0.007630000000     0.076890000000     0.546080000000    -0.434395   
O20      O      0.935800000000     0.963860000000     0.505510000000    -0.397381   
O21      O      0.097660000000     0.096330000000     0.533840000000    -0.455103   
O22      O      0.959070000000     0.023570000000     0.511110000000    -0.435451   
O23      O      0.108900000000     0.061820000000     0.502360000000    -0.416209   
O24      O      0.055150000000     0.088540000000     0.580810000000    -0.450288   
O25      O      0.990260000000     0.001030000000     0.464220000000    -0.431794   
O26      O      0.075480000000     0.987510000000     0.534160000000    -0.445736   
O27      O      0.952570000000     0.968660000000     0.563270000000    -0.437737   
O28      O      0.962590000000     0.928920000000     0.479710000000    -0.397755   
O29      O      0.054680000000     0.021590000000     0.599430000000    -0.465799   
O30      O      0.001050000000     0.024280000000     0.597760000000    -0.447081   
O31      O      0.025880000000     0.955060000000     0.487100000000    -0.451781   
O32      O      0.111960000000     0.039370000000     0.559820000000    -0.440689   
O33      O      0.981790000000     0.941780000000     0.542370000000    -0.412992   
O34      O      0.026990000000     0.020980000000     0.530760000000    -0.532357   
O35      O      0.973120000000     0.493750000000     0.974530000000    -0.422686   
O36      O      0.021660000000     0.602580000000     0.986020000000    -0.429331   
O37      O      0.960670000000     0.512820000000     0.059640000000    -0.403712   
O38      O      0.095290000000     0.587550000000     0.959590000000    -0.428602   
O39      O      0.968280000000     0.546720000000     0.015680000000    -0.451774   
O40      O      0.033150000000     0.553240000000     0.948990000000    -0.449408   
O41      O      0.084150000000     0.635220000000     0.992400000000    -0.4225     
O42      O      0.966600000000     0.465780000000     0.022530000000    -0.427631   
O43      O      0.084870000000     0.525060000000     0.975740000000    -0.414545   
O44      O      0.013100000000     0.572940000000     0.077660000000    -0.427193   
O45      O      0.039730000000     0.483410000000     0.050310000000    -0.407256   
O46      O      0.101190000000     0.604450000000     0.052150000000    -0.432269   
O47      O      0.065810000000     0.630610000000     0.046750000000    -0.428902   
O48      O      0.023290000000     0.469360000000     0.999050000000    -0.467823   
O49      O      0.109180000000     0.558320000000     0.020000000000    -0.456504   
O50      O      0.037710000000     0.535510000000     0.085170000000    -0.423813   
O51      O      0.036630000000     0.548300000000     0.017020000000    -0.523427   
O52      O      0.982290000000     0.465270000000     0.481940000000    -0.460098   
O53      O      0.036080000000     0.613780000000     0.534350000000    -0.365486   
O54      O      0.974180000000     0.503640000000     0.559840000000    -0.40648    
O55      O      0.089780000000     0.575430000000     0.458360000000    -0.37626    
O56      O      0.988960000000     0.543050000000     0.517730000000    -0.417377   
O57      O      0.031560000000     0.526830000000     0.451380000000    -0.45314    
O58      O      0.047690000000     0.600530000000     0.486680000000    -0.411161   
O59      O      0.977650000000     0.448360000000     0.533770000000    -0.473446   
O60      O      0.093990000000     0.517870000000     0.480050000000    -0.4387     
O61      O      0.030000000000     0.565590000000     0.577520000000    -0.36505    
O62      O      0.050750000000     0.471340000000     0.560050000000    -0.456108   
O63      O      0.123470000000     0.629630000000     0.501680000000    -0.367003   
O64      O      0.096870000000     0.605410000000     0.548860000000    -0.423554   
O65      O      0.042420000000     0.455440000000     0.508460000000    -0.464449   
O66      O      0.118910000000     0.563110000000     0.517120000000    -0.394874   
O67      O      0.051160000000     0.526820000000     0.589260000000    -0.452899   
O68      O      0.042420000000     0.525960000000     0.519760000000    -0.584747   
O69      O      0.463620000000     0.057660000000     0.052010000000    -0.442544   
O70      O      0.534310000000     0.988700000000     0.015370000000    -0.41966    
O71      O      0.539280000000     0.101550000000     0.988870000000    -0.426558   
O72      O      0.482420000000     0.985050000000     0.047360000000    -0.412232   
O73      O      0.515940000000     0.039830000000     0.985990000000    -0.408319   
O74      O      0.464980000000     0.003280000000     0.087780000000    -0.45948    
O75      O      0.538250000000     0.968800000000     0.065420000000    -0.406174   
O76      O      0.505700000000     0.115350000000     0.034820000000    -0.447114   
O77      O      0.527820000000     0.056770000000     0.123110000000    -0.461913   
O78      O      0.596450000000     0.096190000000     0.990300000000    -0.400855   
O79      O      0.573750000000     0.140820000000     0.076340000000    -0.438918   
O80      O      0.590740000000     0.039900000000     0.081080000000    -0.418849   
O81      O      0.606820000000     0.050880000000     0.031020000000    -0.442083   
O82      O      0.517080000000     0.108940000000     0.096010000000    -0.482046   
O83      O      0.526000000000     0.004280000000     0.110310000000    -0.38988    
O84      O      0.606780000000     0.126700000000     0.034250000000    -0.446487   
O85      O      0.538920000000     0.062690000000     0.053620000000    -0.546738   
O86      O      0.458040000000     0.978560000000     0.551850000000    -0.422347   
O87      O      0.559790000000     0.967990000000     0.535160000000    -0.424541   
O88      O      0.522060000000     0.014800000000     0.485350000000    -0.462283   
O89      O      0.471140000000     0.954830000000     0.606770000000    -0.452569   
O90      O      0.580810000000     0.025110000000     0.493850000000    -0.42544    
O91      O      0.455540000000     0.998460000000     0.611710000000    -0.382644   
O92      O      0.502580000000     0.938940000000     0.557360000000    -0.396654   
O93      O      0.473130000000     0.024460000000     0.516220000000    -0.465532   
O94      O      0.531040000000     0.047090000000     0.615530000000    -0.414051   
O95      O      0.618580000000     0.077800000000     0.543690000000    -0.437839   
O96      O      0.534420000000     0.091280000000     0.542130000000    -0.4597     
O97      O      0.568740000000     0.966670000000     0.594720000000    -0.397661   
O98      O      0.603210000000     0.025470000000     0.585820000000    -0.449366   
O99      O      0.485820000000     0.054350000000     0.572150000000    -0.398907   
O100     O      0.545580000000     0.004060000000     0.631170000000    -0.421904   
O101     O      0.582100000000     0.086740000000     0.506660000000    -0.460777   
O102     O      0.538250000000     0.022280000000     0.555740000000    -0.54934    
O103     O      0.471970000000     0.480830000000     0.017550000000    -0.436162   
O104     O      0.548080000000     0.638360000000     0.039910000000    -0.451802   
O105     O      0.474020000000     0.540110000000     0.102970000000    -0.435592   
O106     O      0.511690000000     0.541540000000     0.977810000000    -0.454973   
O107     O      0.494960000000     0.593620000000     0.076490000000    -0.447676   
O108     O      0.536530000000     0.506490000000     0.988880000000    -0.376916   
O109     O      0.518950000000     0.604080000000     0.996850000000    -0.430042   
O110     O      0.445190000000     0.492060000000     0.056130000000    -0.458937   
O111     O      0.576830000000     0.527450000000     0.049190000000    -0.445966   
O112     O      0.548680000000     0.582490000000     0.116580000000    -0.437463   
O113     O      0.497790000000     0.465130000000     0.074260000000    -0.475122   
O114     O      0.595470000000     0.626330000000     0.018930000000    -0.466602   
O115     O      0.601110000000     0.620670000000     0.071860000000    -0.430473   
O116     O      0.523600000000     0.460160000000     0.031180000000    -0.399649   
O117     O      0.592090000000     0.564590000000     0.005330000000    -0.399106   
O118     O      0.534760000000     0.524220000000     0.109930000000    -0.469544   
O119     O      0.527160000000     0.554390000000     0.045610000000    -0.5534     
O120     O      0.494220000000     0.438840000000     0.517200000000    -0.448853   
O121     O      0.545800000000     0.593230000000     0.558830000000    -0.400113   
O122     O      0.449670000000     0.470340000000     0.589910000000    -0.355502   
O123     O      0.532050000000     0.526830000000     0.472680000000    -0.467407   
O124     O      0.481020000000     0.529820000000     0.570770000000    -0.444443   
O125     O      0.551390000000     0.485080000000     0.480630000000    -0.456147   
O126     O      0.528940000000     0.576750000000     0.508140000000    -0.439714   
O127     O      0.462090000000     0.467810000000     0.528080000000    -0.399358   
O128     O      0.600920000000     0.507510000000     0.535730000000    -0.473626   
O129     O      0.537930000000     0.563250000000     0.616090000000    -0.382063   
O130     O      0.488400000000     0.437810000000     0.577580000000    -0.387093   
O131     O      0.603560000000     0.596440000000     0.535070000000    -0.45524    
O132     O      0.594630000000     0.567590000000     0.583180000000    -0.376098   
O133     O      0.549190000000     0.460520000000     0.572030000000    -0.437442   
O134     O      0.608640000000     0.549830000000     0.497160000000    -0.441457   
O135     O      0.524090000000     0.503260000000     0.611320000000    -0.432136   
O136     O      0.539780000000     0.517350000000     0.538770000000    -0.613119   
O137     O      0.557750000000     0.449640000000     0.941030000000    -0.0929726  
O138     O      0.501890000000     0.433970000000     0.964330000000    -0.0829003  
O139     O      0.604660000000     0.637030000000     0.154800000000    -0.0713418  
O140     O      0.559950000000     0.630550000000     0.189210000000    -0.0977976  
O141     O      0.418500000000     0.847060000000     0.548490000000    -0.105463   
O142     O      0.440830000000     0.899100000000     0.515230000000    -0.0877329  
O143     O      0.616280000000     0.430290000000     0.594810000000    -0.1084     
O144     O      0.591380000000     0.456840000000     0.625140000000    -0.0798951  
O145     O      0.576380000000     0.121820000000     0.629070000000    -0.0858472  
O146     O      0.527950000000     0.120950000000     0.655050000000    -0.100967   
O147     O      0.651680000000     0.040730000000     0.439420000000    -0.100511   
O148     O      0.613560000000     0.988380000000     0.469650000000    -0.101631   
O149     O      0.503300000000     0.944850000000     0.940970000000    -0.106867   
O150     O      0.563910000000     0.974280000000     0.964400000000    -0.104449   
O151     O      0.638720000000     0.241190000000     0.069660000000    -0.11761    
O152     O      0.639970000000     0.196630000000     0.103960000000    -0.0879935  
O153     O      0.722710000000     0.120820000000     0.550960000000    -0.11001    
O154     O      0.678590000000     0.080460000000     0.513850000000    -0.10409    
O155     O      0.410770000000     0.002390000000     0.655220000000    -0.082483   
O156     O      0.361860000000     0.988620000000     0.617770000000    -0.111841   
O157     O      0.885510000000     0.457660000000     0.602870000000    -0.108145   
O158     O      0.940180000000     0.514890000000     0.609800000000    -0.0829075  
O159     O      0.351970000000     0.408780000000     0.612460000000    -0.102565   
O160     O      0.403450000000     0.455840000000     0.640050000000    -0.086017   
O161     O      0.062540000000     0.652580000000     0.613140000000    -0.0973949  
O162     O      0.001370000000     0.602020000000     0.611660000000    -0.0761738  
O163     O      0.086080000000     0.515360000000     0.148780000000    -0.0888031  
O164     O      0.110770000000     0.564450000000     0.112380000000    -0.0804869  
O165     O      0.905240000000     0.380460000000     0.055560000000    -0.0965333  
O166     O      0.899280000000     0.432760000000     0.057080000000    -0.097236   
O167     O      0.388160000000     0.962340000000     0.137350000000    -0.105547   
O168     O      0.396930000000     0.001280000000     0.093650000000    -0.0881325  
O169     O      0.619330000000     0.543660000000     0.957310000000    -0.0823213  
O170     O      0.676330000000     0.599230000000     0.955880000000    -0.115807   
O171     O      0.475700000000     0.643070000000     0.097070000000    -0.0917255  
O172     O      0.449600000000     0.649620000000     0.048690000000    -0.112942   
O173     O      0.650370000000     0.601770000000     0.658380000000    -0.101184   
O174     O      0.647310000000     0.560410000000     0.622000000000    -0.0818171  
O175     O      0.116170000000     0.194660000000     0.520170000000    -0.112586   
O176     O      0.078440000000     0.139920000000     0.493160000000    -0.0865034  
O177     O      0.589540000000     0.924470000000     0.634840000000    -0.0924796  
O178     O      0.583130000000     0.887810000000     0.592710000000    -0.106546   
O179     O      0.105030000000     0.947820000000     0.471780000000    -0.094675   
O180     O      0.116540000000     0.007630000000     0.475090000000    -0.142966   
O181     O      0.070550000000     0.896170000000     0.521920000000    -0.0963076  
O182     O      0.025600000000     0.908050000000     0.538810000000    -0.078401   
O183     O      0.951830000000     0.121960000000     0.527620000000    -0.104588   
O184     O      0.951100000000     0.084780000000     0.570530000000    -0.116423   
O185     O      0.986780000000     0.075150000000     0.900100000000    -0.105206   
O186     O      0.044620000000     0.098870000000     0.928030000000    -0.134544   
O187     O      0.125560000000     0.051440000000     0.129350000000    -0.0674827  
O188     O      0.139600000000     0.097820000000     0.164840000000    -0.0848318  
O189     O      0.688020000000     0.682940000000     0.124580000000    -0.0931363  
O190     O      0.641170000000     0.691350000000     0.098860000000    -0.0894633  
O191     O      0.187930000000     0.147800000000     0.097070000000    -0.08993    
O192     O      0.138350000000     0.155030000000     0.110960000000    -0.0828427  
O193     O      0.969720000000     0.051120000000     0.153790000000    -0.0993485  
O194     O      0.965580000000     0.103610000000     0.140520000000    -0.111702   
O195     O      0.363350000000     0.994290000000     0.022990000000    -0.0966366  
O196     O      0.420060000000     0.018830000000     0.998250000000    -0.0908533  
O197     O      0.105420000000     0.944620000000     0.088500000000    -0.101387   
O198     O      0.062050000000     0.949190000000     0.117550000000    -0.0834282  
O199     O      0.044860000000     0.421610000000     0.116110000000    -0.0906851  
O200     O      0.995010000000     0.426170000000     0.091860000000    -0.0927341  


