data_structure

_audit_creation_method RASPA-1.0
_audit_creation_date 2023-6-4
_audit_author_name 'Poobodin Mano'

_cell_length_a    22.9217
_cell_length_b    23.2431
_cell_length_c    23.4355
_cell_angle_alpha 87.1354
_cell_angle_beta  93.8161
_cell_angle_gamma 120.436
_cell_volume      10739.4

_symmetry_cell_setting          triclinic
_symmetry_space_group_name_Hall 'P 1'
_symmetry_space_group_name_H-M  'P 1'
_symmetry_Int_Tables_number     1

_symmetry_equiv_pos_as_xyz 'x,y,z'

loop_
_atom_site_label
_atom_site_type_symbol
_atom_site_fract_x
_atom_site_fract_y
_atom_site_fract_z
_atom_site_charge
C1       C      0.073220000000     0.205560000000     0.032550000000     0.453294   
C2       C      0.957990000000     0.951200000000     0.033580000000     0.458422   
C3       C      0.076980000000     0.042520000000     0.928850000000     0.480275   
C4       C      0.948110000000     0.026810000000     0.173210000000     0.400327   
C5       C      0.126160000000     0.086980000000     0.210820000000     0.496034   
C6       C      0.234320000000     0.079190000000     0.999490000000     0.462005   
C7       C      0.230620000000     0.227960000000     0.084920000000     0.494226   
C8       C      0.075150000000     0.927300000000     0.126490000000     0.404011   
C9       C      0.079490000000     0.047820000000     0.422030000000     0.507131   
C10      C      0.051780000000     0.170090000000     0.675040000000     0.370394   
C11      C      0.940020000000     0.076760000000     0.532080000000     0.469218   
C12      C      0.162510000000     0.185060000000     0.509810000000     0.433659   
C13      C      0.218630000000     0.113260000000     0.616650000000     0.4233     
C14      C      0.902200000000     0.922770000000     0.600740000000     0.433871   
C15      C      0.063100000000     0.912670000000     0.505360000000     0.491264   
C16      C      0.072270000000     0.032090000000     0.699030000000     0.467034   
C17      C      0.967020000000     0.408890000000     0.993870000000     0.457053   
C18      C      0.101560000000     0.718670000000     0.046060000000     0.44652    
C19      C      0.911990000000     0.533430000000     0.093220000000     0.549362   
C20      C      0.076720000000     0.581520000000     0.927160000000     0.46879    
C21      C      0.248460000000     0.637850000000     0.996070000000     0.406094   
C22      C      0.029280000000     0.522000000000     0.209400000000     0.487898   
C23      C      0.099760000000     0.428610000000     0.099920000000     0.464642   
C24      C      0.209180000000     0.691150000000     0.137080000000     0.440031   
C25      C      0.908670000000     0.380580000000     0.519930000000     0.491644   
C26      C      0.069480000000     0.693000000000     0.517200000000     0.385637   
C27      C      0.915480000000     0.543280000000     0.573080000000     0.456073   
C28      C      0.056810000000     0.483000000000     0.430810000000     0.422305   
C29      C      0.187950000000     0.541070000000     0.546040000000     0.445213   
C30      C      0.029190000000     0.556870000000     0.695950000000     0.445498   
C31      C      0.031170000000     0.359160000000     0.614920000000     0.36966    
C32      C      0.189010000000     0.668610000000     0.588580000000     0.472557   
C33      C      0.467490000000     0.076630000000     0.015260000000     0.48166    
C34      C      0.605670000000     0.928460000000     0.015670000000     0.475053   
C35      C      0.658940000000     0.101080000000     0.935340000000     0.507146   
C36      C      0.442790000000     0.941150000000     0.134410000000     0.41785    
C37      C      0.590920000000     0.046820000000     0.214380000000     0.445969   
C38      C      0.747950000000     0.207410000000     0.047300000000     0.550836   
C39      C      0.551060000000     0.189400000000     0.129430000000     0.406827   
C40      C      0.711000000000     0.018490000000     0.146240000000     0.449659   
C41      C      0.406620000000     0.078730000000     0.565700000000     0.556358   
C42      C      0.597740000000     0.941990000000     0.507990000000     0.3933     
C43      C      0.522880000000     0.042140000000     0.441420000000     0.461194   
C44      C      0.421440000000     0.905660000000     0.637160000000     0.526418   
C45      C      0.564580000000     0.016040000000     0.731710000000     0.563084   
C46      C      0.672430000000     0.178970000000     0.496520000000     0.452013   
C47      C      0.556470000000     0.190740000000     0.645810000000     0.549448   
C48      C      0.705520000000     0.064820000000     0.600560000000     0.480628   
C49      C      0.449570000000     0.387880000000     0.013680000000     0.399146   
C50      C      0.592260000000     0.719590000000     0.979240000000     0.473727   
C51      C      0.459030000000     0.601290000000     0.062530000000     0.458088   
C52      C      0.536750000000     0.540230000000     0.905240000000     0.474048   
C53      C      0.690550000000     0.546460000000     0.991940000000     0.471082   
C54      C      0.560090000000     0.577770000000     0.185850000000     0.464699   
C55      C      0.565410000000     0.434270000000     0.119130000000     0.441721   
C56      C      0.738890000000     0.723970000000     0.052380000000     0.498557   
C57      C      0.408160000000     0.407010000000     0.543210000000     0.473724   
C58      C      0.585330000000     0.723870000000     0.512040000000     0.371378   
C59      C      0.417080000000     0.541140000000     0.568780000000     0.451155   
C60      C      0.580410000000     0.581810000000     0.419840000000     0.475104   
C61      C      0.682000000000     0.528710000000     0.516270000000     0.478323   
C62      C      0.529760000000     0.593100000000     0.689100000000     0.415836   
C63      C      0.557110000000     0.415800000000     0.609560000000     0.459883   
C64      C      0.687180000000     0.699920000000     0.627000000000     0.483607   
C65      C      0.484620000000     0.610160000000     0.775710000000    -0.00790853 
C66      C      0.460980000000     0.497570000000     0.754300000000     0.00214465 
C67      C      0.521400000000     0.608970000000     0.832710000000    -0.015007   
C68      C      0.496440000000     0.491700000000     0.810730000000     0.0186051  
C69      C      0.507950000000     0.532000000000     0.279190000000    -0.0100956  
C70      C      0.633260000000     0.613130000000     0.274820000000    -0.0247897  
C71      C      0.507400000000     0.567420000000     0.332590000000    -0.012367   
C72      C      0.629890000000     0.648810000000     0.327030000000     0.0337608  
C73      C      0.658460000000     0.888730000000     0.475010000000    -0.016169   
C74      C      0.528250000000     0.825210000000     0.485410000000    -0.0254999  
C75      C      0.650260000000     0.823820000000     0.451160000000    -0.0112903  
C76      C      0.527920000000     0.773000000000     0.449140000000     0.0366454  
C77      C      0.558130000000     0.277540000000     0.704650000000    -0.00939329 
C78      C      0.627950000000     0.305590000000     0.619400000000    -0.0169479  
C79      C      0.569490000000     0.349480000000     0.690550000000    -0.014244   
C80      C      0.578660000000     0.323500000000     0.588240000000     0.0323459  
C81      C      0.556400000000     0.053820000000     0.825220000000    -0.00040742 
C82      C      0.635550000000     0.010280000000     0.815310000000    -0.0203637  
C83      C      0.615750000000     0.120760000000     0.843880000000    -0.0101656  
C84      C      0.692840000000     0.075820000000     0.842030000000     0.0344822  
C85      C      0.559670000000     0.102670000000     0.350850000000    -0.00707183 
C86      C      0.516610000000     0.977890000000     0.356330000000    -0.0177471  
C87      C      0.555680000000     0.093440000000     0.286490000000    -0.0118645  
C88      C      0.569750000000     0.992800000000     0.311450000000     0.0276859  
C89      C      0.536840000000     0.837920000000     0.945290000000    -0.0112263  
C90      C      0.662870000000     0.900600000000     0.945220000000    -0.0179891  
C91      C      0.543630000000     0.779670000000     0.922570000000    -0.00867915 
C92      C      0.667660000000     0.837550000000     0.956350000000     0.0348302  
C93      C      0.597810000000     0.305570000000     0.095790000000    -0.012279   
C94      C      0.514860000000     0.261870000000     0.174440000000    -0.0272087  
C95      C      0.629870000000     0.375060000000     0.121080000000    -0.0128019  
C96      C      0.544050000000     0.336730000000     0.191990000000     0.0294374  
C97      C      0.737780000000     0.299530000000     0.498300000000    -0.00799021 
C98      C      0.771400000000     0.236300000000     0.433380000000    -0.0225386  
C99      C      0.800160000000     0.359490000000     0.475730000000    -0.00796292 
C100     C      0.847810000000     0.293930000000     0.440920000000     0.0297632  
C101     C      0.308680000000     0.744570000000     0.574850000000    -0.00999214 
C102     C      0.257710000000     0.744490000000     0.668050000000    -0.020314   
C103     C      0.373740000000     0.790050000000     0.608560000000    -0.00672683 
C104     C      0.304030000000     0.821870000000     0.665660000000     0.0335222  
C105     C      0.807260000000     0.529900000000     0.601970000000    -0.0112942  
C106     C      0.849510000000     0.576910000000     0.505100000000    -0.022714   
C107     C      0.738890000000     0.480290000000     0.574490000000    -0.00541329 
C108     C      0.779810000000     0.526900000000     0.477070000000     0.0325204  
C109     C      0.325770000000     0.539170000000     0.504400000000    -0.00955869 
C110     C      0.310690000000     0.517410000000     0.610630000000    -0.0223439  
C111     C      0.300370000000     0.588630000000     0.507140000000    -0.0103661  
C112     C      0.292210000000     0.571880000000     0.611420000000     0.031479   
C113     C      0.992470000000     0.521950000000     0.849610000000    -0.0126     
C114     C      0.075920000000     0.645380000000     0.838880000000    -0.021267   
C115     C      0.015140000000     0.511780000000     0.793540000000    -0.00285258 
C116     C      0.046250000000     0.633580000000     0.775170000000     0.0302593  
C117     C      0.064360000000     0.564380000000     0.307860000000    -0.014646   
C118     C      0.007530000000     0.440580000000     0.290370000000    -0.0187248  
C119     C      0.114070000000     0.557740000000     0.350380000000     0.00195749 
C120     C      0.057470000000     0.436240000000     0.335920000000     0.025255   
C121     C      0.813210000000     0.328300000000     0.025860000000    -0.0037183  
C122     C      0.870440000000     0.259140000000     0.031470000000    -0.0161037  
C123     C      0.846450000000     0.356990000000     0.968160000000    -0.0135433  
C124     C      0.897190000000     0.287080000000     0.971780000000     0.0276321  
C125     C      0.329160000000     0.766230000000     0.120640000000    -0.0145963  
C126     C      0.275060000000     0.795830000000     0.196990000000    -0.02274    
C127     C      0.394800000000     0.820160000000     0.148650000000    -0.00572878 
C128     C      0.337250000000     0.871430000000     0.193150000000     0.0282873  
C129     C      0.795490000000     0.470060000000     0.050140000000    -0.00539198 
C130     C      0.850610000000     0.593540000000     0.072180000000    -0.0140777  
C131     C      0.750400000000     0.483180000000     0.005510000000    -0.012105   
C132     C      0.777820000000     0.579450000000     0.070880000000     0.0271164  
C133     C      0.314370000000     0.585820000000     0.971550000000    -0.00463735 
C134     C      0.374850000000     0.700220000000     0.008060000000    -0.0219226  
C135     C      0.344050000000     0.562200000000     0.021140000000    -0.0149628  
C136     C      0.409630000000     0.679060000000     0.057870000000     0.0253104  
C137     C      0.787590000000     0.868380000000     0.638860000000    -0.0148683  
C138     C      0.848930000000     0.803590000000     0.624410000000    -0.0201544  
C139     C      0.736840000000     0.808190000000     0.675840000000    -0.0117596  
C140     C      0.805780000000     0.756370000000     0.671780000000     0.0302675  
C141     C      0.264510000000     0.271480000000     0.461870000000    -0.0132754  
C142     C      0.218940000000     0.298800000000     0.544980000000    -0.0229332  
C143     C      0.319800000000     0.345610000000     0.468980000000    -0.00888606 
C144     C      0.290250000000     0.325420000000     0.573650000000     0.0331517  
C145     C      0.830820000000     0.019770000000     0.571320000000    -0.00753768 
C146     C      0.891380000000     0.143040000000     0.563730000000    -0.0235541  
C147     C      0.764750000000     0.016510000000     0.563510000000    -0.011421   
C148     C      0.821550000000     0.140220000000     0.563540000000     0.0302003  
C149     C      0.337220000000     0.129530000000     0.533770000000    -0.00234101 
C150     C      0.294480000000     0.032660000000     0.602270000000    -0.0147874  
C151     C      0.333000000000     0.172250000000     0.580980000000    -0.0246148  
C152     C      0.300260000000     0.078380000000     0.650110000000     0.0317432  
C153     C      0.016570000000     0.809150000000     0.450080000000    -0.00240832 
C154     C      0.138180000000     0.872680000000     0.478820000000    -0.00948575 
C155     C      0.008920000000     0.744880000000     0.477440000000    -0.0124011  
C156     C      0.136640000000     0.812540000000     0.508950000000     0.0235261  
C157     C      0.986150000000     0.214960000000     0.718060000000    -0.0145017  
C158     C      0.110700000000     0.282060000000     0.714310000000    -0.0195756  
C159     C      0.988980000000     0.281760000000     0.698830000000    -0.0136781  
C160     C      0.109610000000     0.330070000000     0.667260000000     0.0283893  
C161     C      0.143210000000     0.073780000000     0.848070000000    -0.00317919 
C162     C      0.039120000000     0.965100000000     0.851500000000    -0.0163062  
C163     C      0.134540000000     0.082640000000     0.784990000000    -0.00987502 
C164     C      0.025250000000     0.965280000000     0.786320000000     0.0302472  
C165     C      0.181780000000     0.147120000000     0.298900000000    -0.00670416 
C166     C      0.140220000000     0.024830000000     0.292410000000    -0.01138    
C167     C      0.159750000000     0.128300000000     0.360760000000    -0.0118642  
C168     C      0.083590000000     0.005210000000     0.333560000000     0.0235359  
C169     C      0.838550000000     0.889990000000     0.057020000000    -0.00719589 
C170     C      0.879350000000     0.847420000000     0.982820000000    -0.0190037  
C171     C      0.821810000000     0.828760000000     0.095870000000    -0.00935233 
C172     C      0.858550000000     0.784120000000     0.019510000000     0.0318879  
C173     C      0.328300000000     0.331750000000     0.997890000000    -0.0044568  
C174     C      0.383070000000     0.273670000000     0.048780000000    -0.0275573  
C175     C      0.303200000000     0.339830000000     0.054730000000    -0.00563995 
C176     C      0.353000000000     0.277520000000     0.105330000000     0.032083   
C177     C      0.830320000000     0.958650000000     0.207920000000    -0.012578   
C178     C      0.889950000000     0.080830000000     0.212050000000    -0.0209611  
C179     C      0.766410000000     0.954900000000     0.177670000000    -0.011277   
C180     C      0.830550000000     0.084490000000     0.180900000000     0.0298075  
C181     C      0.348640000000     0.026170000000     0.028670000000    -0.0102834  
C182     C      0.406330000000     0.122230000000     0.956720000000    -0.0225936  
C183     C      0.283580000000     0.007770000000     0.995480000000    -0.00610154 
C184     C      0.333780000000     0.108030000000     0.934970000000     0.0305734  
C185     C      0.021500000000     0.812220000000     0.093230000000    -0.0099895  
C186     C      0.144890000000     0.890530000000     0.085460000000    -0.0234613  
C187     C      0.035070000000     0.754340000000     0.095590000000    -0.0121705  
C188     C      0.159310000000     0.832890000000     0.087860000000     0.0276183  
C189     C      0.127250000000     0.329650000000     0.027090000000    -0.00757657 
C190     C      0.029360000000     0.261290000000     0.090730000000    -0.026479   
C191     C      0.165040000000     0.376320000000     0.077780000000    -0.0134606  
C192     C      0.068780000000     0.312400000000     0.138320000000     0.0344015  
Co1      Co     0.087860000000     0.144900000000     0.121610000000     0.967575   
Co2      Co     0.108790000000     0.000270000000     0.040850000000     1.0849     
Co3      Co     0.154340000000     0.145040000000     0.998420000000     1.11261    
Co4      Co     0.026550000000     0.017110000000     0.123620000000     1.06587    
Co5      Co     0.142090000000     0.045160000000     0.529590000000     1.19009    
Co6      Co     0.015160000000     0.059020000000     0.615520000000     0.768427   
Co7      Co     0.979360000000     0.976900000000     0.501990000000     1.14676    
Co8      Co     0.099450000000     0.120920000000     0.604260000000     0.80229    
Co9      Co     0.105280000000     0.505830000000     0.011590000000     0.988013   
Co10     Co     0.054790000000     0.624080000000     0.119540000000     1.11674    
Co11     Co     0.986710000000     0.463850000000     0.094440000000     1.12898    
Co12     Co     0.157660000000     0.635900000000     0.032080000000     1.03598    
Co13     Co     0.053420000000     0.445480000000     0.553300000000     1.14782    
Co14     Co     0.055270000000     0.603890000000     0.577440000000     1.11574    
Co15     Co     0.965930000000     0.456980000000     0.618000000000     0.995142   
Co16     Co     0.105920000000     0.590390000000     0.495320000000     0.917574   
Co17     Co     0.543840000000     0.083620000000     0.122380000000     1.04064    
Co18     Co     0.691530000000     0.063910000000     0.044000000000     1.19792    
Co19     Co     0.607520000000     0.149830000000     0.025710000000     1.04571    
Co20     Co     0.564190000000     0.960090000000     0.111710000000     1.00587    
Co21     Co     0.479100000000     0.048700000000     0.657980000000     1.29483    
Co22     Co     0.602140000000     0.043880000000     0.532110000000     0.931666   
Co23     Co     0.544880000000     0.134660000000     0.533620000000     1.19149    
Co24     Co     0.566890000000     0.970100000000     0.617940000000     1.02097    
Co25     Co     0.552860000000     0.486960000000     0.016490000000     1.00505    
Co26     Co     0.607940000000     0.661240000000     0.091920000000     1.09088    
Co27     Co     0.487820000000     0.500440000000     0.086810000000     0.928079   
Co28     Co     0.643730000000     0.636310000000     0.969330000000     1.16501    
Co29     Co     0.535840000000     0.481020000000     0.502060000000     1.11272    
Co30     Co     0.549360000000     0.633180000000     0.569760000000     1.0658     
Co31     Co     0.502670000000     0.492010000000     0.629010000000     1.09159    
Co32     Co     0.656900000000     0.630650000000     0.529300000000     1.01832    
H1       H      0.405970000000     0.477030000000     0.760180000000     0.0357652  
H2       H      0.430230000000     0.591100000000     0.782700000000     0.0382411  
H3       H      0.506790000000     0.632350000000     0.864840000000     0.0456549  
H4       H      0.463910000000     0.466820000000     0.720940000000    -0.00439955 
H5       H      0.547340000000     0.501270000000     0.800390000000     0.0463643  
H6       H      0.506950000000     0.662390000000     0.758960000000     0.0384078  
H7       H      0.576870000000     0.640720000000     0.827150000000     0.0483162  
H8       H      0.649490000000     0.576650000000     0.288740000000     0.0489514  
H9       H      0.511540000000     0.487270000000     0.292500000000     0.0407319  
H10      H      0.465840000000     0.530610000000     0.359410000000     0.0487582  
H11      H      0.672210000000     0.651010000000     0.246390000000     0.0515533  
H12      H      0.616580000000     0.686770000000     0.310860000000     0.0295265  
H13      H      0.458910000000     0.514690000000     0.254590000000     0.0434111  
H14      H      0.494400000000     0.606360000000     0.319280000000     0.0399028  
H15      H      0.518990000000     0.806970000000     0.530630000000     0.063692   
H16      H      0.684820000000     0.894510000000     0.517410000000     0.0335092  
H17      H      0.694360000000     0.818260000000     0.465960000000     0.0360251  
H18      H      0.486770000000     0.834370000000     0.469130000000     0.0483474  
H19      H      0.533760000000     0.791610000000     0.403930000000     0.0284969  
H20      H      0.691480000000     0.931540000000     0.446880000000     0.0415693  
H21      H      0.650280000000     0.827390000000     0.403640000000     0.0355663  
H22      H      0.671430000000     0.349680000000     0.640560000000     0.0398772  
H23      H      0.580410000000     0.276640000000     0.748020000000     0.0368432  
H24      H      0.619160000000     0.386890000000     0.710430000000     0.0437679  
H25      H      0.651560000000     0.287160000000     0.590900000000     0.0500098  
H26      H      0.528560000000     0.277830000000     0.579940000000     0.0346668  
H27      H      0.502530000000     0.242220000000     0.705240000000     0.0353998  
H28      H      0.529580000000     0.353760000000     0.711250000000     0.0401268  
H29      H      0.612590000000     0.971030000000     0.849170000000     0.0448468  
H30      H      0.533800000000     0.021170000000     0.863360000000     0.042907   
H31      H      0.597600000000     0.148090000000     0.868170000000     0.0461303  
H32      H      0.656350000000     0.992140000000     0.783610000000     0.0468302  
H33      H      0.717940000000     0.110920000000     0.805780000000     0.0319567  
H34      H      0.515930000000     0.061400000000     0.804020000000     0.0425207  
H35      H      0.640170000000     0.152490000000     0.805720000000     0.044161   
H36      H      0.515180000000     0.940240000000     0.388400000000     0.0487425  
H37      H      0.613940000000     0.133590000000     0.365090000000     0.0493909  
H38      H      0.587310000000     0.143760000000     0.266790000000     0.0509875  
H39      H      0.465670000000     0.954700000000     0.334050000000     0.0413172  
H40      H      0.551680000000     0.945640000000     0.288340000000     0.0345795  
H41      H      0.533890000000     0.131010000000     0.358800000000     0.0408721  
H42      H      0.502340000000     0.073740000000     0.270270000000     0.0542059  
H43      H      0.658810000000     0.910380000000     0.898540000000     0.0402806  
H44      H      0.520360000000     0.860130000000     0.909220000000     0.0365323  
H45      H      0.553770000000     0.788420000000     0.876280000000     0.0354028  
H46      H      0.709930000000     0.944660000000     0.962350000000     0.0473101  
H47      H      0.690240000000     0.841130000000     0.000180000000     0.0399783  
H48      H      0.497190000000     0.818860000000     0.976720000000     0.0457156  
H49      H      0.495610000000     0.731390000000     0.926480000000     0.0302516  
H50      H      0.466340000000     0.244130000000     0.149870000000     0.0467693  
H51      H      0.563400000000     0.301660000000     0.058500000000     0.0474961  
H52      H      0.656990000000     0.411500000000     0.086910000000     0.0518257  
H53      H      0.504920000000     0.230230000000     0.213910000000     0.0477717  
H54      H      0.583730000000     0.346920000000     0.226430000000     0.0309264  
H55      H      0.640060000000     0.301130000000     0.079960000000     0.0425928  
H56      H      0.668390000000     0.381200000000     0.155470000000     0.0394744  
H57      H      0.766410000000     0.186220000000     0.431140000000     0.051231   
H58      H      0.743960000000     0.300200000000     0.545790000000     0.0515583  
H59      H      0.811330000000     0.404560000000     0.499280000000     0.0442418  
H60      H      0.750720000000     0.244020000000     0.391290000000     0.0379434  
H61      H      0.864010000000     0.318910000000     0.398500000000     0.0297493  
H62      H      0.692920000000     0.304280000000     0.484960000000     0.0301034  
H63      H      0.790660000000     0.369040000000     0.430000000000     0.0352901  
H64      H      0.207670000000     0.730260000000     0.684850000000     0.0517268  
H65      H      0.301770000000     0.773670000000     0.538730000000     0.0491644  
H66      H      0.415020000000     0.811200000000     0.577860000000     0.0475585  
H67      H      0.281310000000     0.723240000000     0.698690000000     0.0429068  
H68      H      0.317880000000     0.839740000000     0.710350000000     0.0280488  
H69      H      0.313500000000     0.704210000000     0.556940000000     0.0401216  
H70      H      0.385130000000     0.760970000000     0.641990000000     0.0405175  
H71      H      0.852180000000     0.625130000000     0.512640000000     0.0454059  
H72      H      0.806340000000     0.574910000000     0.614350000000     0.0542941  
H73      H      0.698820000000     0.468850000000     0.604670000000     0.0404557  
H74      H      0.889590000000     0.587030000000     0.475270000000     0.0524449  
H75      H      0.781580000000     0.482130000000     0.465500000000     0.0305356  
H76      H      0.816700000000     0.507060000000     0.641710000000     0.0452043  
H77      H      0.739620000000     0.433710000000     0.567670000000     0.0364333  
H78      H      0.263630000000     0.468430000000     0.604700000000     0.0520655  
H79      H      0.282570000000     0.489830000000     0.491150000000     0.0439085  
H80      H      0.274520000000     0.589520000000     0.465530000000     0.0447427  
H81      H      0.337150000000     0.516350000000     0.651940000000     0.0505995  
H82      H      0.340620000000     0.620520000000     0.614420000000     0.0352708  
H83      H      0.363630000000     0.556010000000     0.471020000000     0.0503377  
H84      H      0.344380000000     0.639410000000     0.513400000000     0.0411944  
H85      H      0.069930000000     0.684180000000     0.859350000000     0.0500773  
H86      H      0.945870000000     0.525250000000     0.842200000000     0.0429667  
H87      H      0.973090000000     0.464300000000     0.775520000000     0.0347395  
H88      H      0.131390000000     0.665470000000     0.837440000000     0.0465098  
H89      H      0.085000000000     0.674420000000     0.748590000000     0.0396869  
H90      H      0.978130000000     0.477290000000     0.877760000000     0.0484052  
H91      H      0.060600000000     0.506510000000     0.801650000000     0.048351   
H92      H      0.958840000000     0.425990000000     0.309930000000     0.0426842  
H93      H      0.022550000000     0.562310000000     0.331050000000     0.050139   
H94      H      0.134290000000     0.597850000000     0.382570000000     0.0197051  
H95      H      0.996370000000     0.404380000000     0.256240000000     0.0483537  
H96      H      0.102180000000     0.443850000000     0.313450000000     0.0370924  
H97      H      0.092150000000     0.614370000000     0.286740000000     0.0455453  
H98      H      0.158380000000     0.565250000000     0.327310000000     0.0366971  
H99      H      0.908490000000     0.290050000000     0.065190000000     0.0363786  
H100     H      0.843950000000     0.362590000000     0.060940000000     0.0369035  
H101     H      0.854970000000     0.408060000000     0.959460000000     0.0440202  
H102     H      0.861360000000     0.207490000000     0.037390000000     0.0445019  
H103     H      0.856050000000     0.256410000000     0.939690000000     0.033999   
H104     H      0.762720000000     0.324370000000     0.023600000000     0.0342874  
H105     H      0.811290000000     0.325920000000     0.932800000000     0.0356155  
H106     H      0.225980000000     0.794000000000     0.199660000000     0.0444326  
H107     H      0.322800000000     0.783870000000     0.077000000000     0.0618006  
H108     H      0.437240000000     0.828850000000     0.122420000000     0.0271804  
H109     H      0.281770000000     0.774840000000     0.238930000000     0.0364865  
H110     H      0.360930000000     0.885200000000     0.237020000000     0.0300508  
H111     H      0.333600000000     0.721520000000     0.117890000000     0.0446709  
H112     H      0.403800000000     0.802130000000     0.191360000000     0.0311608  
H113     H      0.879680000000     0.625670000000     0.109320000000     0.040763   
H114     H      0.765390000000     0.436990000000     0.085400000000     0.0347451  
H115     H      0.702300000000     0.435600000000     0.997000000000     0.0414132  
H116     H      0.874820000000     0.621940000000     0.032710000000     0.047465   
H117     H      0.780910000000     0.628460000000     0.066560000000     0.0444603  
H118     H      0.814560000000     0.443170000000     0.027350000000     0.0396619  
H119     H      0.777060000000     0.500080000000     0.964750000000     0.0396498  
H120     H      0.406730000000     0.718100000000     0.970600000000     0.0402974  
H121     H      0.347960000000     0.601140000000     0.934870000000     0.0371578  
H122     H      0.347640000000     0.520160000000     0.004600000000     0.0500332  
H123     H      0.368900000000     0.742220000000     0.020430000000     0.0477738  
H124     H      0.379770000000     0.666570000000     0.096360000000     0.0349287  
H125     H      0.264340000000     0.543740000000     0.956680000000     0.0366509  
H126     H      0.307880000000     0.541700000000     0.056100000000     0.0482045  
H127     H      0.828130000000     0.780910000000     0.581740000000     0.0458774  
H128     H      0.760460000000     0.867900000000     0.597610000000     0.0326199  
H129     H      0.685420000000     0.801880000000     0.669460000000     0.0479499  
H130     H      0.901480000000     0.812450000000     0.630910000000     0.0531062  
H131     H      0.828710000000     0.781360000000     0.713340000000     0.0354326  
H132     H      0.801220000000     0.914770000000     0.661370000000     0.0417011  
H133     H      0.751840000000     0.819700000000     0.721830000000     0.0392133  
H134     H      0.213820000000     0.340350000000     0.524380000000     0.0521343  
H135     H      0.243740000000     0.264130000000     0.417010000000     0.0300687  
H136     H      0.300080000000     0.378130000000     0.451330000000     0.0426708  
H137     H      0.180270000000     0.275890000000     0.577690000000     0.065385   
H138     H      0.295080000000     0.282870000000     0.591170000000     0.0480873  
H139     H      0.288660000000     0.240550000000     0.470000000000     0.0390108  
H140     H      0.362970000000     0.355120000000     0.443150000000     0.0331717  
H141     H      0.915560000000     0.152880000000     0.607270000000     0.0555051  
H142     H      0.842680000000     0.020020000000     0.618110000000     0.0555235  
H143     H      0.728170000000     0.969460000000     0.585490000000     0.0423737  
H144     H      0.926360000000     0.184880000000     0.535870000000     0.0527542  
H145     H      0.806120000000     0.145490000000     0.518620000000     0.0437403  
H146     H      0.823490000000     0.973810000000     0.551840000000     0.0410414  
H147     H      0.751880000000     0.014110000000     0.516960000000     0.0533057  
H148     H      0.243300000000     0.007640000000     0.580640000000     0.0440159  
H149     H      0.289710000000     0.108050000000     0.506350000000     0.0172323  
H150     H      0.318520000000     0.207480000000     0.560560000000     0.0434048  
H151     H      0.302500000000     0.991790000000     0.619790000000     0.0498308  
H152     H      0.353420000000     0.104520000000     0.668090000000     0.0334231  
H153     H      0.379770000000     0.162070000000     0.505940000000     0.0326672  
H154     H      0.384100000000     0.202650000000     0.602180000000     0.0412237  
H155     H      0.150190000000     0.876040000000     0.432980000000     0.0380081  
H156     H      0.028720000000     0.812580000000     0.404420000000     0.0364117  
H157     H      0.978300000000     0.703300000000     0.447390000000     0.0397537  
H158     H      0.179100000000     0.919340000000     0.498970000000     0.0378475  
H159     H      0.138180000000     0.819280000000     0.555810000000     0.0514162  
H160     H      0.967460000000     0.807790000000     0.451330000000     0.0373199  
H161     H      0.980290000000     0.734120000000     0.516920000000     0.0456972  
H162     H      0.110820000000     0.299370000000     0.757940000000     0.0409912  
H163     H      0.978970000000     0.207380000000     0.764840000000     0.0390915  
H164     H      0.001780000000     0.313640000000     0.736780000000     0.0414677  
H165     H      0.157710000000     0.279180000000     0.713600000000     0.0504788  
H166     H      0.127720000000     0.321660000000     0.627470000000     0.0510648  
H167     H      0.941510000000     0.172040000000     0.697440000000     0.0462291  
H168     H      0.937980000000     0.270450000000     0.682010000000     0.0390151  
H169     H      0.068520000000     0.939660000000     0.863740000000     0.0456248  
H170     H      0.174180000000     0.049400000000     0.856550000000     0.0438821  
H171     H      0.184360000000     0.101150000000     0.765900000000     0.0488065  
H172     H      0.989670000000     0.936680000000     0.872360000000     0.0349196  
H173     H      0.979360000000     0.970050000000     0.779060000000     0.0435051  
H174     H      0.171910000000     0.124510000000     0.866810000000     0.0356243  
H175     H      0.120970000000     0.122430000000     0.778950000000     0.0527645  
H176     H      0.127690000000     0.984410000000     0.261910000000     0.0531787  
H177     H      0.164040000000     0.181580000000     0.282120000000     0.046699   
H178     H      0.153250000000     0.168340000000     0.377940000000     0.0341255  
H179     H      0.186580000000     0.032580000000     0.317410000000     0.039901   
H180     H      0.082900000000     0.964830000000     0.361890000000     0.0334385  
H181     H      0.237990000000     0.175030000000     0.298310000000     0.0358752  
H182     H      0.201970000000     0.127320000000     0.386440000000     0.0385206  
H183     H      0.837680000000     0.839500000000     0.951430000000     0.0466313  
H184     H      0.793630000000     0.880480000000     0.029850000000     0.040167   
H185     H      0.779300000000     0.818230000000     0.123020000000     0.0333579  
H186     H      0.924120000000     0.859930000000     0.957810000000     0.0414879  
H187     H      0.903110000000     0.792490000000     0.046330000000     0.0334766  
H188     H      0.851120000000     0.933420000000     0.083450000000     0.0504486  
H189     H      0.866450000000     0.839550000000     0.124880000000     0.0558167  
H190     H      0.348800000000     0.225290000000     0.027940000000     0.0609272  
H191     H      0.289080000000     0.285550000000     0.976260000000     0.0368751  
H192     H      0.256540000000     0.341690000000     0.045630000000     0.0318695  
H193     H      0.432700000000     0.276360000000     0.057870000000     0.0453532  
H194     H      0.391960000000     0.323220000000     0.127520000000     0.0358916  
H195     H      0.337080000000     0.373760000000     0.967850000000     0.0468269  
H196     H      0.340200000000     0.387550000000     0.075470000000     0.0397435  
H197     H      0.885430000000     0.077440000000     0.259360000000     0.0437709  
H198     H      0.824560000000     0.953900000000     0.254960000000     0.0386323  
H199     H      0.721230000000     0.916160000000     0.199990000000     0.03855    
H200     H      0.938130000000     0.127850000000     0.203350000000     0.0438875  
H201     H      0.847290000000     0.105560000000     0.137370000000     0.0376106  
H202     H      0.833930000000     0.915230000000     0.195080000000     0.0433813  
H203     H      0.762170000000     0.937640000000     0.133360000000     0.0393015  
H204     H      0.432020000000     0.168830000000     0.982050000000     0.0438291  
H205     H      0.351890000000     0.053140000000     0.067810000000     0.0580157  
H206     H      0.242110000000     0.975640000000     0.022460000000     0.033921   
H207     H      0.437090000000     0.131220000000     0.918960000000     0.0446607  
H208     H      0.319110000000     0.077490000000     0.895880000000     0.0295906  
H209     H      0.348470000000     0.979480000000     0.041970000000     0.0494887  
H210     H      0.278090000000     0.978450000000     0.957300000000     0.0383496  
H211     H      0.139840000000     0.904290000000     0.039950000000     0.0174965  
H212     H      0.007900000000     0.819130000000     0.048070000000     0.0386313  
H213     H      0.990050000000     0.712600000000     0.073730000000     0.0422731  
H214     H      0.188920000000     0.933350000000     0.107680000000     0.0499013  
H215     H      0.171950000000     0.825270000000     0.132920000000     0.0350197  
H216     H      0.978630000000     0.799200000000     0.120800000000     0.0414168  
H217     H      0.037600000000     0.738840000000     0.140950000000     0.0235172  
H218     H      0.993870000000     0.274070000000     0.068360000000     0.0482004  
H219     H      0.101660000000     0.351340000000     0.999580000000     0.0423642  
H220     H      0.203890000000     0.426270000000     0.061840000000     0.0401043  
H221     H      0.998680000000     0.210860000000     0.110510000000     0.0394555  
H222     H      0.100270000000     0.295090000000     0.163280000000     0.0261228  
H223     H      0.163570000000     0.327240000000     0.999780000000     0.0375572  
H224     H      0.192950000000     0.356730000000     0.104970000000     0.0449392  
N1       N      0.505410000000     0.541060000000     0.853450000000    -0.176477   
N2       N      0.490430000000     0.567760000000     0.735590000000    -0.174694   
N3       N      0.574620000000     0.599400000000     0.363410000000    -0.180822   
N4       N      0.566020000000     0.576860000000     0.244510000000    -0.17684    
N5       N      0.586430000000     0.766470000000     0.468790000000    -0.161187   
N6       N      0.594200000000     0.888260000000     0.483000000000    -0.160734   
N7       N      0.568890000000     0.365550000000     0.627960000000    -0.182066   
N8       N      0.587790000000     0.255650000000     0.662520000000    -0.193018   
N9       N      0.663380000000     0.105870000000     0.877010000000    -0.188793   
N10      N      0.582500000000     0.022480000000     0.788780000000    -0.196232   
N11      N      0.578060000000     0.047140000000     0.270820000000    -0.173329   
N12      N      0.529010000000     0.039110000000     0.383870000000    -0.171642   
N13      N      0.600260000000     0.776700000000     0.953070000000    -0.181489   
N14      N      0.601620000000     0.890350000000     0.971050000000    -0.174917   
N15      N      0.577750000000     0.385260000000     0.144110000000    -0.172578   
N16      N      0.559300000000     0.251920000000     0.137980000000    -0.162583   
N17      N      0.855520000000     0.345170000000     0.481190000000    -0.181283   
N18      N      0.728260000000     0.236020000000     0.477940000000    -0.171823   
N19      N      0.366730000000     0.842150000000     0.635480000000    -0.192061   
N20      N      0.250120000000     0.716200000000     0.611150000000    -0.176267   
N21      N      0.726450000000     0.505880000000     0.518820000000    -0.183236   
N22      N      0.859630000000     0.549250000000     0.560600000000    -0.17283    
N23      N      0.256640000000     0.570290000000     0.556100000000    -0.177869   
N24      N      0.353160000000     0.531310000000     0.561190000000    -0.171565   
N25      N      0.031180000000     0.568250000000     0.753290000000    -0.175221   
N26      N      0.047000000000     0.584000000000     0.874990000000    -0.172277   
N27      N      0.080460000000     0.490650000000     0.377110000000    -0.172132   
N28      N      0.035850000000     0.509540000000     0.266660000000    -0.179218   
N29      N      0.910370000000     0.356020000000     0.968810000000    -0.18277    
N30      N      0.808830000000     0.263470000000     0.038450000000    -0.197521   
N31      N      0.390980000000     0.880720000000     0.155300000000    -0.172158   
N32      N      0.269340000000     0.749140000000     0.152440000000    -0.16536    
N33      N      0.736430000000     0.534690000000     0.023140000000    -0.175457   
N34      N      0.853070000000     0.531500000000     0.074680000000    -0.190214   
N35      N      0.410190000000     0.617340000000     0.043920000000    -0.176358   
N36      N      0.309890000000     0.642980000000     0.989300000000    -0.163613   
N37      N      0.737070000000     0.747050000000     0.662780000000    -0.181194   
N38      N      0.850050000000     0.867720000000     0.626210000000    -0.168519   
N39      N      0.341610000000     0.361470000000     0.529970000000    -0.184938   
N40      N      0.209140000000     0.250960000000     0.501070000000    -0.167633   
N41      N      0.767440000000     0.075450000000     0.586390000000    -0.180259   
N42      N      0.884490000000     0.080300000000     0.544810000000    -0.173692   
N43      N      0.284660000000     0.128820000000     0.624350000000    -0.17716    
N44      N      0.344860000000     0.074480000000     0.560120000000    -0.199759   
N45      N      0.074590000000     0.749060000000     0.492550000000    -0.161124   
N46      N      0.071480000000     0.865720000000     0.481040000000    -0.183353   
N47      N      0.040360000000     0.319460000000     0.655710000000    -0.154852   
N48      N      0.049470000000     0.217120000000     0.706030000000    -0.154494   
N49      N      0.081660000000     0.021600000000     0.755800000000    -0.17662    
N50      N      0.077010000000     0.033380000000     0.872530000000    -0.178944   
N51      N      0.096250000000     0.063220000000     0.367070000000    -0.186474   
N52      N      0.154560000000     0.087660000000     0.263580000000    -0.179681   
N53      N      0.805300000000     0.772160000000     0.059530000000    -0.187388   
N54      N      0.893490000000     0.902160000000     0.020070000000    -0.174348   
N55      N      0.291940000000     0.283760000000     0.093240000000    -0.187601   
N56      N      0.390560000000     0.328530000000     0.009790000000    -0.16148    
N57      N      0.766080000000     0.018650000000     0.174510000000    -0.176419   
N58      N      0.891430000000     0.022190000000     0.194660000000    -0.160759   
N59      N      0.283010000000     0.068670000000     0.978330000000    -0.180941   
N60      N      0.406780000000     0.068400000000     0.993660000000    -0.177271   
N61      N      0.098620000000     0.770740000000     0.068450000000    -0.184196   
N62      N      0.081330000000     0.874380000000     0.111360000000    -0.177122   
N63      N      0.114610000000     0.378600000000     0.112060000000    -0.178671   
N64      N      0.075910000000     0.263120000000     0.048470000000    -0.176991   
O1       O      0.038170000000     0.152930000000     0.059650000000    -0.444392   
O2       O      0.008040000000     0.942410000000     0.028960000000    -0.426923   
O3       O      0.082860000000     0.096470000000     0.944980000000    -0.457476   
O4       O      0.953710000000     0.975750000000     0.169620000000    -0.406321   
O5       O      0.097230000000     0.011330000000     0.962310000000    -0.475167   
O6       O      0.996290000000     0.082930000000     0.154730000000    -0.458333   
O7       O      0.966620000000     0.998990000000     0.062270000000    -0.45303    
O8       O      0.121470000000     0.208200000000     0.007130000000    -0.426287   
O9       O      0.135060000000     0.139860000000     0.186860000000    -0.465972   
O10      O      0.204540000000     0.048270000000     0.043720000000    -0.439066   
O11      O      0.225900000000     0.190210000000     0.046880000000    -0.492264   
O12      O      0.018860000000     0.924700000000     0.126920000000    -0.362321   
O13      O      0.122220000000     0.984230000000     0.116860000000    -0.445444   
O14      O      0.177520000000     0.222800000000     0.103830000000    -0.417924   
O15      O      0.084290000000     0.032740000000     0.188370000000    -0.448672   
O16      O      0.209740000000     0.110020000000     0.971230000000    -0.431531   
O17      O      0.103040000000     0.077300000000     0.069540000000    -0.532779   
O18      O      0.117960000000     0.035480000000     0.454030000000    -0.516169   
O19      O      0.001010000000     0.109050000000     0.671790000000    -0.350035   
O20      O      0.930550000000     0.023100000000     0.511320000000    -0.45101    
O21      O      0.109840000000     0.170550000000     0.535560000000    -0.378331   
O22      O      0.994130000000     0.110540000000     0.561140000000    -0.411692   
O23      O      0.181670000000     0.142050000000     0.510370000000    -0.435335   
O24      O      0.105550000000     0.187770000000     0.647430000000    -0.370493   
O25      O      0.022250000000     0.034770000000     0.438060000000    -0.457972   
O26      O      0.174300000000     0.054580000000     0.605090000000    -0.456761   
O27      O      0.921200000000     0.981910000000     0.616210000000    -0.355864   
O28      O      0.015410000000     0.921930000000     0.486310000000    -0.460912   
O29      O      0.109830000000     0.086170000000     0.675770000000    -0.431012   
O30      O      0.019150000000     0.997260000000     0.671560000000    -0.379717   
O31      O      0.109210000000     0.954040000000     0.539190000000    -0.461695   
O32      O      0.200600000000     0.156730000000     0.611560000000    -0.3466     
O33      O      0.932990000000     0.914800000000     0.561760000000    -0.43877    
O34      O      0.057570000000     0.033520000000     0.557250000000    -0.561126   
O35      O      0.023840000000     0.413460000000     0.001160000000    -0.411568   
O36      O      0.052130000000     0.662320000000     0.049650000000    -0.465481   
O37      O      0.918350000000     0.483870000000     0.089840000000    -0.499098   
O38      O      0.111280000000     0.632370000000     0.957570000000    -0.410059   
O39      O      0.962890000000     0.586900000000     0.107520000000    -0.501149   
O40      O      0.070720000000     0.527300000000     0.945330000000    -0.459353   
O41      O      0.156280000000     0.719210000000     0.041710000000    -0.390899   
O42      O      0.961920000000     0.452430000000     0.017000000000    -0.468291   
O43      O      0.196130000000     0.580200000000     0.001750000000    -0.499813   
O44      O      0.050150000000     0.581200000000     0.191260000000    -0.470724   
O45      O      0.040340000000     0.418670000000     0.103900000000    -0.440121   
O46      O      0.209350000000     0.649880000000     0.103610000000    -0.418186   
O47      O      0.152330000000     0.686260000000     0.143320000000    -0.425848   
O48      O      0.141340000000     0.480350000000     0.073800000000    -0.453963   
O49      O      0.241720000000     0.688740000000     0.999460000000    -0.390427   
O50      O      0.003430000000     0.474610000000     0.174500000000    -0.469627   
O51      O      0.069400000000     0.557940000000     0.069680000000    -0.510079   
O52      O      0.966040000000     0.387830000000     0.515430000000    -0.438118   
O53      O      0.073520000000     0.688270000000     0.571860000000    -0.430063   
O54      O      0.918390000000     0.508170000000     0.615280000000    -0.412321   
O55      O      0.041620000000     0.525100000000     0.446210000000    -0.416476   
O56      O      0.966250000000     0.574630000000     0.543460000000    -0.42722    
O57      O      0.073120000000     0.452360000000     0.470130000000    -0.366673   
O58      O      0.061690000000     0.645510000000     0.485220000000    -0.418978   
O59      O      0.901690000000     0.409230000000     0.560200000000    -0.46657    
O60      O      0.145820000000     0.500730000000     0.581490000000    -0.42787    
O61      O      0.027850000000     0.596930000000     0.657320000000    -0.387331   
O62      O      0.001100000000     0.391000000000     0.628250000000    -0.453298   
O63      O      0.178980000000     0.661350000000     0.535800000000    -0.464368   
O64      O      0.139850000000     0.632780000000     0.618420000000    -0.441687   
O65      O      0.061040000000     0.372720000000     0.567330000000    -0.413196   
O66      O      0.165600000000     0.554810000000     0.499740000000    -0.420067   
O67      O      0.022890000000     0.502520000000     0.680770000000    -0.443512   
O68      O      0.041780000000     0.521490000000     0.561370000000    -0.631231   
O69      O      0.473330000000     0.063510000000     0.067110000000    -0.44925    
O70      O      0.662120000000     0.971890000000     0.036310000000    -0.475786   
O71      O      0.637900000000     0.133990000000     0.959420000000    -0.472154   
O72      O      0.475710000000     0.940800000000     0.093990000000    -0.432229   
O73      O      0.672350000000     0.062340000000     0.964890000000    -0.483077   
O74      O      0.467120000000     0.997000000000     0.159160000000    -0.360523   
O75      O      0.554230000000     0.920260000000     0.038860000000    -0.433274   
O76      O      0.520280000000     0.107060000000     0.987950000000    -0.453103   
O77      O      0.606000000000     0.098150000000     0.183220000000    -0.442298   
O78      O      0.742380000000     0.152180000000     0.042000000000    -0.540149   
O79      O      0.576980000000     0.180940000000     0.086320000000    -0.497338   
O80      O      0.653770000000     0.965840000000     0.137670000000    -0.406514   
O81      O      0.719780000000     0.070240000000     0.120350000000    -0.473085   
O82      O      0.515620000000     0.137510000000     0.160600000000    -0.379568   
O83      O      0.569680000000     0.991350000000     0.189970000000    -0.427092   
O84      O      0.695740000000     0.209970000000     0.054480000000    -0.481473   
O85      O      0.597680000000     0.055940000000     0.070940000000    -0.505888   
O86      O      0.422780000000     0.061410000000     0.612160000000    -0.572306   
O87      O      0.642080000000     0.002150000000     0.495390000000    -0.383053   
O88      O      0.534880000000     0.096670000000     0.461380000000    -0.477383   
O89      O      0.477880000000     0.914550000000     0.625880000000    -0.498824   
O90      O      0.524780000000     0.000070000000     0.476350000000    -0.401972   
O91      O      0.416370000000     0.955040000000     0.649310000000    -0.482878   
O92      O      0.552830000000     0.932110000000     0.543060000000    -0.449575   
O93      O      0.448690000000     0.102210000000     0.527080000000    -0.483799   
O94      O      0.525630000000     0.035220000000     0.712790000000    -0.580388   
O95      O      0.653920000000     0.121410000000     0.479010000000    -0.378318   
O96      O      0.556740000000     0.180010000000     0.594440000000    -0.553329   
O97      O      0.660880000000     0.007980000000     0.615220000000    -0.478198   
O98      O      0.682900000000     0.099000000000     0.578240000000    -0.42269    
O99      O      0.529980000000     0.141770000000     0.679790000000    -0.479036   
O100     O      0.585780000000     0.991590000000     0.697740000000    -0.463317   
O101     O      0.638990000000     0.182390000000     0.534960000000    -0.46577    
O102     O      0.546530000000     0.057030000000     0.587870000000    -0.506248   
O103     O      0.506480000000     0.394780000000     0.002380000000    -0.389727   
O104     O      0.611750000000     0.721860000000     0.031320000000    -0.454962   
O105     O      0.449280000000     0.544970000000     0.051010000000    -0.447228   
O106     O      0.599380000000     0.575010000000     0.911830000000    -0.479244   
O107     O      0.511780000000     0.639640000000     0.093280000000    -0.422405   
O108     O      0.505670000000     0.501240000000     0.945580000000    -0.389186   
O109     O      0.587210000000     0.673680000000     0.948990000000    -0.465156   
O110     O      0.446840000000     0.439050000000     0.026190000000    -0.473661   
O111     O      0.631600000000     0.499170000000     0.977510000000    -0.390293   
O112     O      0.610680000000     0.613830000000     0.157510000000    -0.463185   
O113     O      0.515500000000     0.440190000000     0.129270000000    -0.420781   
O114     O      0.710610000000     0.714400000000     0.003680000000    -0.483366   
O115     O      0.703160000000     0.694970000000     0.094550000000    -0.450342   
O116     O      0.599350000000     0.470000000000     0.078520000000    -0.429884   
O117     O      0.700660000000     0.604650000000     0.989730000000    -0.481336   
O118     O      0.503950000000     0.545030000000     0.158910000000    -0.424405   
O119     O      0.584890000000     0.578870000000     0.041750000000    -0.529605   
O120     O      0.443630000000     0.449600000000     0.506710000000    -0.466204   
O121     O      0.542010000000     0.704680000000     0.551180000000    -0.410483   
O122     O      0.432770000000     0.516970000000     0.613160000000    -0.433746   
O123     O      0.635790000000     0.609580000000     0.448840000000    -0.443176   
O124     O      0.462400000000     0.578120000000     0.534220000000    -0.426861   
O125     O      0.530030000000     0.535430000000     0.443370000000    -0.466441   
O126     O      0.622070000000     0.696260000000     0.508660000000    -0.456203   
O127     O      0.434670000000     0.409830000000     0.592510000000    -0.446885   
O128     O      0.627290000000     0.500320000000     0.485890000000    -0.440106   
O129     O      0.514300000000     0.623190000000     0.649060000000    -0.367052   
O130     O      0.560460000000     0.457360000000     0.644720000000    -0.4405     
O131     O      0.697270000000     0.661530000000     0.600590000000    -0.453538   
O132     O      0.631800000000     0.696870000000     0.615570000000    -0.419261   
O133     O      0.538920000000     0.418450000000     0.557420000000    -0.451567   
O134     O      0.695590000000     0.578390000000     0.544370000000    -0.446266   
O135     O      0.559660000000     0.564150000000     0.673930000000    -0.443057   
O136     O      0.563670000000     0.553470000000     0.563840000000    -0.557006   
S1       S      0.453830000000     0.415960000000     0.835850000000     0.00366083 
S2       S      0.704240000000     0.690120000000     0.358940000000    -0.0109378  
S3       S      0.457220000000     0.702980000000     0.449020000000    -0.0105623  
S4       S      0.605370000000     0.355350000000     0.525660000000    -0.0131101  
S5       S      0.751440000000     0.066030000000     0.875480000000    -0.0124901  
S6       S      0.642180000000     0.012410000000     0.342780000000     0.0109109  
S7       S      0.715940000000     0.833990000000     0.911190000000    -0.0180648  
S8       S      0.487440000000     0.345810000000     0.221340000000    -0.0134113  
S9       S      0.895790000000     0.263010000000     0.458790000000     0.00991848 
S10      S      0.262790000000     0.855020000000     0.634770000000     0.00408607 
S11      S      0.765240000000     0.557790000000     0.417840000000    -0.0160767  
S12      S      0.252240000000     0.568560000000     0.666970000000     0.00646905 
S13      S      0.978870000000     0.639640000000     0.768670000000     0.00146931 
S14      S      0.024320000000     0.362750000000     0.365720000000     0.0054384  
S15      S      0.960960000000     0.280500000000     0.955720000000    -0.00700655 
S16      S      0.310450000000     0.922460000000     0.175250000000    -0.0036146  
S17      S      0.744150000000     0.548040000000     0.131380000000     0.0168216  
S18      S      0.483800000000     0.742090000000     0.073770000000    -0.00621242 
S19      S      0.807690000000     0.687520000000     0.676230000000     0.0148234  
S20      S      0.299510000000     0.370990000000     0.627230000000    -0.00589198 
S21      S      0.830330000000     0.202510000000     0.598860000000     0.00130937 
S22      S      0.253570000000     0.036560000000     0.703110000000    -0.00108147 
S23      S      0.204050000000     0.811480000000     0.493620000000    -0.00655275 
S24      S      0.161210000000     0.405360000000     0.687590000000    -0.00398673 
S25      S      0.007960000000     0.894340000000     0.761140000000     0.00319135 
S26      S      0.010060000000     0.973800000000     0.300670000000     0.0286944  
S27      S      0.840100000000     0.722210000000     0.979020000000    -0.00758975 
S28      S      0.337310000000     0.214660000000     0.148090000000    -0.00371831 
S29      S      0.818660000000     0.136990000000     0.214390000000     0.00227069 
S30      S      0.336510000000     0.177140000000     0.915320000000    -0.0109786  
S31      S      0.224820000000     0.854210000000     0.050600000000     0.0103848  
S32      S      0.018900000000     0.313490000000     0.183530000000    -0.0146453  


