data_structure

_audit_creation_method RASPA-1.0
_audit_creation_date 2023-5-19
_audit_author_name 'Poobodin Mano'

_cell_length_a    30.1215
_cell_length_b    30.0592
_cell_length_c    29.8096
_cell_angle_alpha 90
_cell_angle_beta  90
_cell_angle_gamma 90
_cell_volume      26990.5

_symmetry_cell_setting          triclinic
_symmetry_space_group_name_Hall 'P 1'
_symmetry_space_group_name_H-M  'P 1'
_symmetry_Int_Tables_number     1

_symmetry_equiv_pos_as_xyz 'x,y,z'

loop_
_atom_site_label
_atom_site_type_symbol
_atom_site_fract_x
_atom_site_fract_y
_atom_site_fract_z
_atom_site_charge
C1       C      0.429660000000     0.430640000000     0.449820000000     0.39424    
C2       C      0.083660000000     0.084770000000     0.449820000000     0.393931   
C3       C      0.429660000000     0.084770000000     0.449820000000     0.394261   
C4       C      0.083660000000     0.430640000000     0.449820000000     0.394081   
C5       C      0.085460000000     0.428850000000     0.071570000000     0.40004    
C6       C      0.427860000000     0.086570000000     0.071570000000     0.399936   
C7       C      0.427860000000     0.428850000000     0.071570000000     0.399938   
C8       C      0.085460000000     0.086570000000     0.071570000000     0.399934   
C9       C      0.335460000000     0.336570000000     0.202350000000     0.400012   
C10      C      0.177860000000     0.178850000000     0.202350000000     0.400034   
C11      C      0.335460000000     0.178850000000     0.202350000000     0.400148   
C12      C      0.177860000000     0.336570000000     0.202350000000     0.40002    
C13      C      0.179660000000     0.334770000000     0.324100000000     0.394226   
C14      C      0.333660000000     0.180640000000     0.324100000000     0.394108   
C15      C      0.333660000000     0.334770000000     0.324100000000     0.394121   
C16      C      0.179660000000     0.180640000000     0.324100000000     0.394211   
C17      C      0.092470000000     0.148970000000     0.120320000000     0.0323852  
C18      C      0.147770000000     0.093400000000     0.120300000000     0.032384   
C19      C      0.170850000000     0.116440000000     0.153600000000     0.0323389  
C20      C      0.115550000000     0.172010000000     0.153620000000     0.0324377  
C21      C      0.116250000000     0.172700000000     0.371310000000     0.031582   
C22      C      0.171480000000     0.117090000000     0.371240000000     0.0315431  
C23      C      0.147060000000     0.092720000000     0.402610000000     0.0316265  
C24      C      0.091840000000     0.148330000000     0.402680000000     0.0315693  
C25      C      0.092470000000     0.366440000000     0.120320000000     0.0323237  
C26      C      0.147770000000     0.422010000000     0.120300000000     0.0324035  
C27      C      0.170850000000     0.398970000000     0.153600000000     0.0323851  
C28      C      0.115550000000     0.343410000000     0.153620000000     0.0324703  
C29      C      0.420850000000     0.148970000000     0.120320000000     0.0323705  
C30      C      0.365550000000     0.093410000000     0.120300000000     0.0324281  
C31      C      0.342470000000     0.116450000000     0.153590000000     0.0323859  
C32      C      0.397770000000     0.172010000000     0.153620000000     0.0324207  
C33      C      0.421480000000     0.367100000000     0.402670000000     0.0316484  
C34      C      0.366250000000     0.422690000000     0.402620000000     0.03161    
C35      C      0.341840000000     0.398320000000     0.371250000000     0.0316398  
C36      C      0.397070000000     0.342720000000     0.371300000000     0.0315219  
C37      C      0.366240000000     0.092730000000     0.402630000000     0.031566   
C38      C      0.421480000000     0.148320000000     0.402660000000     0.0315991  
C39      C      0.397070000000     0.172690000000     0.371290000000     0.0315918  
C40      C      0.341830000000     0.117100000000     0.371260000000     0.0316099  
C41      C      0.116250000000     0.342720000000     0.371300000000     0.0315563  
C42      C      0.171480000000     0.398320000000     0.371250000000     0.0315954  
C43      C      0.147070000000     0.422690000000     0.402620000000     0.031619   
C44      C      0.091840000000     0.367100000000     0.402670000000     0.0316312  
C45      C      0.342470000000     0.398970000000     0.153590000000     0.0324199  
C46      C      0.397770000000     0.343410000000     0.153630000000     0.0324558  
C47      C      0.420850000000     0.366450000000     0.120330000000     0.0323488  
C48      C      0.365540000000     0.422010000000     0.120290000000     0.0323841  
C49      C      0.429660000000     0.430640000000     0.949820000000     0.394148   
C50      C      0.083660000000     0.084770000000     0.949820000000     0.393871   
C51      C      0.429660000000     0.084770000000     0.949820000000     0.394132   
C52      C      0.083660000000     0.430640000000     0.949820000000     0.393987   
C53      C      0.085460000000     0.428850000000     0.571570000000     0.40009    
C54      C      0.427860000000     0.086570000000     0.571570000000     0.399984   
C55      C      0.427860000000     0.428850000000     0.571570000000     0.399986   
C56      C      0.085460000000     0.086570000000     0.571570000000     0.399951   
C57      C      0.335460000000     0.336570000000     0.702350000000     0.400017   
C58      C      0.177860000000     0.178850000000     0.702350000000     0.400037   
C59      C      0.335460000000     0.178850000000     0.702350000000     0.400153   
C60      C      0.177860000000     0.336570000000     0.702350000000     0.400025   
C61      C      0.179660000000     0.334770000000     0.824100000000     0.39418    
C62      C      0.333660000000     0.180640000000     0.824100000000     0.394062   
C63      C      0.333660000000     0.334770000000     0.824100000000     0.394076   
C64      C      0.179660000000     0.180640000000     0.824100000000     0.394201   
C65      C      0.092470000000     0.148970000000     0.620320000000     0.0324031  
C66      C      0.147770000000     0.093400000000     0.620300000000     0.0323983  
C67      C      0.170850000000     0.116440000000     0.653600000000     0.0323491  
C68      C      0.115550000000     0.172010000000     0.653620000000     0.0324472  
C69      C      0.116250000000     0.172700000000     0.871310000000     0.0316018  
C70      C      0.171480000000     0.117090000000     0.871240000000     0.0315656  
C71      C      0.147060000000     0.092720000000     0.902610000000     0.0316455  
C72      C      0.091840000000     0.148330000000     0.902670000000     0.0315785  
C73      C      0.092470000000     0.366440000000     0.620320000000     0.0323429  
C74      C      0.147770000000     0.422010000000     0.620300000000     0.0324239  
C75      C      0.170850000000     0.398970000000     0.653590000000     0.0323784  
C76      C      0.115550000000     0.343410000000     0.653620000000     0.0324785  
C77      C      0.420850000000     0.148970000000     0.620320000000     0.0323886  
C78      C      0.365550000000     0.093410000000     0.620300000000     0.0324465  
C79      C      0.342470000000     0.116450000000     0.653590000000     0.0323947  
C80      C      0.397770000000     0.172010000000     0.653620000000     0.03243    
C81      C      0.421480000000     0.367100000000     0.902670000000     0.0316705  
C82      C      0.366250000000     0.422690000000     0.902620000000     0.0316315  
C83      C      0.341840000000     0.398320000000     0.871250000000     0.0316574  
C84      C      0.397070000000     0.342720000000     0.871300000000     0.03154    
C85      C      0.366240000000     0.092730000000     0.902620000000     0.0315681  
C86      C      0.421480000000     0.148320000000     0.902660000000     0.0316188  
C87      C      0.397070000000     0.172690000000     0.871290000000     0.031611   
C88      C      0.341830000000     0.117100000000     0.871260000000     0.031632   
C89      C      0.116250000000     0.342720000000     0.871300000000     0.0315741  
C90      C      0.171480000000     0.398320000000     0.871250000000     0.0316132  
C91      C      0.147070000000     0.422690000000     0.902620000000     0.0316405  
C92      C      0.091840000000     0.367100000000     0.902670000000     0.0316526  
C93      C      0.342470000000     0.398970000000     0.653590000000     0.0324272  
C94      C      0.397770000000     0.343410000000     0.653620000000     0.0324492  
C95      C      0.420850000000     0.366450000000     0.620330000000     0.0323695  
C96      C      0.365540000000     0.422010000000     0.620290000000     0.0324032  
C97      C      0.429660000000     0.930640000000     0.449820000000     0.394252   
C98      C      0.083660000000     0.584770000000     0.449820000000     0.393938   
C99      C      0.429660000000     0.584770000000     0.449820000000     0.394267   
C100     C      0.083660000000     0.930640000000     0.449820000000     0.394094   
C101     C      0.085460000000     0.928850000000     0.071570000000     0.400053   
C102     C      0.427860000000     0.586570000000     0.071570000000     0.399943   
C103     C      0.427860000000     0.928850000000     0.071570000000     0.399951   
C104     C      0.085460000000     0.586570000000     0.071570000000     0.400076   
C105     C      0.335460000000     0.836570000000     0.202350000000     0.400014   
C106     C      0.177860000000     0.678840000000     0.202350000000     0.400002   
C107     C      0.335460000000     0.678840000000     0.202350000000     0.400112   
C108     C      0.177860000000     0.836570000000     0.202350000000     0.400021   
C109     C      0.179660000000     0.834770000000     0.324100000000     0.394229   
C110     C      0.333660000000     0.680640000000     0.324100000000     0.394109   
C111     C      0.333660000000     0.834770000000     0.324100000000     0.394125   
C112     C      0.179660000000     0.680640000000     0.324100000000     0.394074   
C113     C      0.092470000000     0.648970000000     0.120320000000     0.0323888  
C114     C      0.147770000000     0.593400000000     0.120300000000     0.0324009  
C115     C      0.170850000000     0.616440000000     0.153600000000     0.0323407  
C116     C      0.115550000000     0.672010000000     0.153620000000     0.0324488  
C117     C      0.116250000000     0.672700000000     0.371310000000     0.0315744  
C118     C      0.171480000000     0.617090000000     0.371240000000     0.0315445  
C119     C      0.147060000000     0.592720000000     0.402610000000     0.031636   
C120     C      0.091840000000     0.648330000000     0.402680000000     0.0315762  
C121     C      0.092470000000     0.866440000000     0.120320000000     0.03235    
C122     C      0.147770000000     0.922010000000     0.120300000000     0.0324144  
C123     C      0.170850000000     0.898970000000     0.153600000000     0.0323919  
C124     C      0.115550000000     0.843400000000     0.153620000000     0.0324457  
C125     C      0.420850000000     0.648970000000     0.120320000000     0.0323743  
C126     C      0.365550000000     0.593410000000     0.120300000000     0.0324673  
C127     C      0.342470000000     0.616440000000     0.153590000000     0.0323252  
C128     C      0.397770000000     0.672010000000     0.153620000000     0.0324301  
C129     C      0.421480000000     0.867100000000     0.402670000000     0.031626   
C130     C      0.366250000000     0.922690000000     0.402620000000     0.0316144  
C131     C      0.341840000000     0.898320000000     0.371250000000     0.0316493  
C132     C      0.397070000000     0.842730000000     0.371300000000     0.0315669  
C133     C      0.366240000000     0.592730000000     0.402630000000     0.0315731  
C134     C      0.421480000000     0.648320000000     0.402660000000     0.0316023  
C135     C      0.397070000000     0.672690000000     0.371290000000     0.0315933  
C136     C      0.341830000000     0.617100000000     0.371260000000     0.0316164  
C137     C      0.116250000000     0.842730000000     0.371300000000     0.0316015  
C138     C      0.171480000000     0.898320000000     0.371250000000     0.031605   
C139     C      0.147070000000     0.922690000000     0.402620000000     0.0316236  
C140     C      0.091840000000     0.867100000000     0.402670000000     0.0316089  
C141     C      0.342470000000     0.898970000000     0.153590000000     0.0324278  
C142     C      0.397770000000     0.843410000000     0.153630000000     0.0324579  
C143     C      0.420850000000     0.866450000000     0.120330000000     0.0323545  
C144     C      0.365540000000     0.922010000000     0.120290000000     0.0323922  
C145     C      0.429660000000     0.930640000000     0.949820000000     0.39416    
C146     C      0.083660000000     0.584770000000     0.949820000000     0.393878   
C147     C      0.429660000000     0.584770000000     0.949820000000     0.394138   
C148     C      0.083660000000     0.930640000000     0.949820000000     0.394      
C149     C      0.085460000000     0.928850000000     0.571570000000     0.400104   
C150     C      0.427860000000     0.586570000000     0.571570000000     0.399991   
C151     C      0.427860000000     0.928850000000     0.571570000000     0.4        
C152     C      0.085460000000     0.586570000000     0.571570000000     0.400093   
C153     C      0.335460000000     0.836570000000     0.702350000000     0.400019   
C154     C      0.177860000000     0.678840000000     0.702350000000     0.400004   
C155     C      0.335460000000     0.678840000000     0.702350000000     0.400117   
C156     C      0.177860000000     0.836570000000     0.702350000000     0.400026   
C157     C      0.179660000000     0.834770000000     0.824100000000     0.394183   
C158     C      0.333660000000     0.680640000000     0.824100000000     0.394063   
C159     C      0.333660000000     0.834770000000     0.824100000000     0.39408    
C160     C      0.179660000000     0.680640000000     0.824100000000     0.394064   
C161     C      0.092470000000     0.648970000000     0.620320000000     0.0324067  
C162     C      0.147770000000     0.593400000000     0.620300000000     0.0324151  
C163     C      0.170850000000     0.616440000000     0.653600000000     0.032351   
C164     C      0.115550000000     0.672010000000     0.653620000000     0.0324584  
C165     C      0.116250000000     0.672700000000     0.871310000000     0.0315942  
C166     C      0.171480000000     0.617090000000     0.871240000000     0.031567   
C167     C      0.147060000000     0.592720000000     0.902610000000     0.031655   
C168     C      0.091840000000     0.648330000000     0.902670000000     0.0315855  
C169     C      0.092470000000     0.866440000000     0.620320000000     0.0323692  
C170     C      0.147770000000     0.922010000000     0.620300000000     0.0324348  
C171     C      0.170850000000     0.898970000000     0.653590000000     0.0323852  
C172     C      0.115550000000     0.843400000000     0.653620000000     0.032454   
C173     C      0.420850000000     0.648970000000     0.620320000000     0.0323924  
C174     C      0.365550000000     0.593410000000     0.620300000000     0.0324858  
C175     C      0.342470000000     0.616440000000     0.653590000000     0.032334   
C176     C      0.397770000000     0.672010000000     0.653620000000     0.0324395  
C177     C      0.421480000000     0.867100000000     0.902670000000     0.0316481  
C178     C      0.366250000000     0.922690000000     0.902620000000     0.0316359  
C179     C      0.341840000000     0.898320000000     0.871250000000     0.0316669  
C180     C      0.397070000000     0.842730000000     0.871300000000     0.031585   
C181     C      0.366240000000     0.592730000000     0.902620000000     0.0315752  
C182     C      0.421480000000     0.648320000000     0.902660000000     0.031622   
C183     C      0.397070000000     0.672690000000     0.871290000000     0.0316126  
C184     C      0.341830000000     0.617100000000     0.871260000000     0.0316385  
C185     C      0.116250000000     0.842730000000     0.871300000000     0.0316194  
C186     C      0.171480000000     0.898320000000     0.871250000000     0.0316227  
C187     C      0.147070000000     0.922690000000     0.902620000000     0.031645   
C188     C      0.091840000000     0.867100000000     0.902670000000     0.0316303  
C189     C      0.342470000000     0.898970000000     0.653590000000     0.0324351  
C190     C      0.397770000000     0.843410000000     0.653620000000     0.0324513  
C191     C      0.420850000000     0.866450000000     0.620330000000     0.0323752  
C192     C      0.365540000000     0.922010000000     0.620290000000     0.0324113  
C193     C      0.929660000000     0.430640000000     0.449820000000     0.394235   
C194     C      0.583660000000     0.084770000000     0.449820000000     0.394116   
C195     C      0.929660000000     0.084770000000     0.449820000000     0.394256   
C196     C      0.583660000000     0.430640000000     0.449820000000     0.394126   
C197     C      0.585460000000     0.428850000000     0.071570000000     0.400046   
C198     C      0.927860000000     0.086570000000     0.071570000000     0.399932   
C199     C      0.927860000000     0.428850000000     0.071570000000     0.399934   
C200     C      0.585460000000     0.086570000000     0.071570000000     0.39994    
C201     C      0.835460000000     0.336570000000     0.202350000000     0.400008   
C202     C      0.677860000000     0.178850000000     0.202350000000     0.400016   
C203     C      0.835460000000     0.178850000000     0.202350000000     0.400063   
C204     C      0.677860000000     0.336570000000     0.202350000000     0.400002   
C205     C      0.679660000000     0.334770000000     0.324100000000     0.394073   
C206     C      0.833660000000     0.180640000000     0.324100000000     0.394065   
C207     C      0.833660000000     0.334770000000     0.324100000000     0.394077   
C208     C      0.679660000000     0.180640000000     0.324100000000     0.394194   
C209     C      0.592470000000     0.148970000000     0.120320000000     0.0323929  
C210     C      0.647770000000     0.093400000000     0.120300000000     0.0323876  
C211     C      0.670850000000     0.116440000000     0.153600000000     0.0323402  
C212     C      0.615550000000     0.172010000000     0.153620000000     0.0324428  
C213     C      0.616250000000     0.172700000000     0.371310000000     0.0315696  
C214     C      0.671480000000     0.117090000000     0.371240000000     0.0315653  
C215     C      0.647060000000     0.092720000000     0.402610000000     0.0315796  
C216     C      0.591840000000     0.148330000000     0.402680000000     0.0316206  
C217     C      0.592470000000     0.366440000000     0.120320000000     0.0323313  
C218     C      0.647770000000     0.422010000000     0.120300000000     0.0324071  
C219     C      0.670850000000     0.398970000000     0.153600000000     0.0323864  
C220     C      0.615550000000     0.343410000000     0.153620000000     0.0324753  
C221     C      0.920850000000     0.148970000000     0.120320000000     0.0323795  
C222     C      0.865550000000     0.093410000000     0.120300000000     0.0324342  
C223     C      0.842470000000     0.116450000000     0.153590000000     0.0323846  
C224     C      0.897770000000     0.172010000000     0.153620000000     0.0324256  
C225     C      0.921480000000     0.367100000000     0.402670000000     0.031641   
C226     C      0.866250000000     0.422690000000     0.402620000000     0.0316367  
C227     C      0.841840000000     0.398320000000     0.371250000000     0.0315898  
C228     C      0.897070000000     0.342720000000     0.371300000000     0.0315687  
C229     C      0.866250000000     0.092730000000     0.402630000000     0.0316494  
C230     C      0.921490000000     0.148320000000     0.402660000000     0.0315516  
C231     C      0.897070000000     0.172690000000     0.371290000000     0.0316624  
C232     C      0.841830000000     0.117100000000     0.371260000000     0.0315496  
C233     C      0.616250000000     0.342720000000     0.371300000000     0.0315703  
C234     C      0.671480000000     0.398320000000     0.371250000000     0.0316144  
C235     C      0.647070000000     0.422690000000     0.402620000000     0.031569   
C236     C      0.591830000000     0.367100000000     0.402670000000     0.0316326  
C237     C      0.842470000000     0.398970000000     0.153590000000     0.0324179  
C238     C      0.897780000000     0.343410000000     0.153630000000     0.0323816  
C239     C      0.920850000000     0.366450000000     0.120330000000     0.032395   
C240     C      0.865540000000     0.422010000000     0.120290000000     0.0323943  
C241     C      0.929660000000     0.430640000000     0.949820000000     0.394143   
C242     C      0.583660000000     0.084770000000     0.949820000000     0.394056   
C243     C      0.929660000000     0.084770000000     0.949820000000     0.394127   
C244     C      0.583660000000     0.430640000000     0.949820000000     0.394032   
C245     C      0.585460000000     0.428850000000     0.571570000000     0.400096   
C246     C      0.927860000000     0.086570000000     0.571570000000     0.39998    
C247     C      0.927860000000     0.428850000000     0.571570000000     0.399982   
C248     C      0.585460000000     0.086570000000     0.571570000000     0.399957   
C249     C      0.835460000000     0.336570000000     0.702350000000     0.400014   
C250     C      0.677860000000     0.178850000000     0.702350000000     0.400019   
C251     C      0.835460000000     0.178850000000     0.702350000000     0.400067   
C252     C      0.677860000000     0.336570000000     0.702350000000     0.400007   
C253     C      0.679660000000     0.334770000000     0.824100000000     0.394027   
C254     C      0.833660000000     0.180640000000     0.824100000000     0.394019   
C255     C      0.833660000000     0.334770000000     0.824100000000     0.394032   
C256     C      0.679660000000     0.180640000000     0.824100000000     0.394184   
C257     C      0.592470000000     0.148970000000     0.620320000000     0.0324108  
C258     C      0.647770000000     0.093400000000     0.620300000000     0.0324018  
C259     C      0.670850000000     0.116440000000     0.653600000000     0.0323505  
C260     C      0.615550000000     0.172010000000     0.653620000000     0.0324524  
C261     C      0.616250000000     0.172700000000     0.871310000000     0.0315893  
C262     C      0.671480000000     0.117090000000     0.871240000000     0.0315878  
C263     C      0.647060000000     0.092720000000     0.902610000000     0.0315985  
C264     C      0.591840000000     0.148330000000     0.902670000000     0.0316298  
C265     C      0.592470000000     0.366440000000     0.620320000000     0.0323505  
C266     C      0.647770000000     0.422010000000     0.620300000000     0.0324274  
C267     C      0.670850000000     0.398970000000     0.653590000000     0.0323797  
C268     C      0.615550000000     0.343410000000     0.653620000000     0.0324836  
C269     C      0.920850000000     0.148970000000     0.620320000000     0.0323975  
C270     C      0.865550000000     0.093410000000     0.620300000000     0.0324527  
C271     C      0.842470000000     0.116450000000     0.653590000000     0.0323934  
C272     C      0.897770000000     0.172010000000     0.653620000000     0.0324349  
C273     C      0.921480000000     0.367100000000     0.902670000000     0.031663   
C274     C      0.866250000000     0.422690000000     0.902620000000     0.0316581  
C275     C      0.841840000000     0.398320000000     0.871250000000     0.0316074  
C276     C      0.897070000000     0.342720000000     0.871300000000     0.0315868  
C277     C      0.866250000000     0.092730000000     0.902620000000     0.0316516  
C278     C      0.921490000000     0.148320000000     0.902660000000     0.0315714  
C279     C      0.897070000000     0.172690000000     0.871290000000     0.0316817  
C280     C      0.841830000000     0.117100000000     0.871260000000     0.0315716  
C281     C      0.616250000000     0.342720000000     0.871300000000     0.0315881  
C282     C      0.671480000000     0.398320000000     0.871250000000     0.0316321  
C283     C      0.647070000000     0.422690000000     0.902620000000     0.0315904  
C284     C      0.591830000000     0.367100000000     0.902670000000     0.031654   
C285     C      0.842470000000     0.398970000000     0.653590000000     0.0324252  
C286     C      0.897780000000     0.343410000000     0.653620000000     0.0323751  
C287     C      0.920850000000     0.366450000000     0.620330000000     0.0324157  
C288     C      0.865540000000     0.422010000000     0.620290000000     0.0324134  
C289     C      0.929660000000     0.930640000000     0.449820000000     0.394247   
C290     C      0.583660000000     0.584770000000     0.449820000000     0.394122   
C291     C      0.929660000000     0.584770000000     0.449820000000     0.394262   
C292     C      0.583660000000     0.930640000000     0.449820000000     0.394139   
C293     C      0.585460000000     0.928850000000     0.071570000000     0.400059   
C294     C      0.927860000000     0.586570000000     0.071570000000     0.399938   
C295     C      0.927860000000     0.928850000000     0.071570000000     0.399948   
C296     C      0.585460000000     0.586570000000     0.071570000000     0.400082   
C297     C      0.835460000000     0.836570000000     0.202350000000     0.400011   
C298     C      0.677860000000     0.678840000000     0.202350000000     0.399983   
C299     C      0.835460000000     0.678840000000     0.202350000000     0.400027   
C300     C      0.677860000000     0.836570000000     0.202350000000     0.400003   
C301     C      0.679660000000     0.834770000000     0.324100000000     0.394075   
C302     C      0.833660000000     0.680640000000     0.324100000000     0.394066   
C303     C      0.833660000000     0.834770000000     0.324100000000     0.394081   
C304     C      0.679660000000     0.680640000000     0.324100000000     0.394057   
C305     C      0.592470000000     0.648970000000     0.120320000000     0.0323964  
C306     C      0.647770000000     0.593400000000     0.120300000000     0.0324044  
C307     C      0.670850000000     0.616440000000     0.153600000000     0.0323421  
C308     C      0.615550000000     0.672010000000     0.153620000000     0.0324539  
C309     C      0.616250000000     0.672700000000     0.371310000000     0.0315619  
C310     C      0.671480000000     0.617090000000     0.371240000000     0.0315667  
C311     C      0.647060000000     0.592720000000     0.402610000000     0.0315891  
C312     C      0.591840000000     0.648330000000     0.402680000000     0.0316276  
C313     C      0.592470000000     0.866440000000     0.120320000000     0.0323575  
C314     C      0.647770000000     0.922010000000     0.120300000000     0.032418   
C315     C      0.670850000000     0.898970000000     0.153600000000     0.0323932  
C316     C      0.615550000000     0.843400000000     0.153620000000     0.0324508  
C317     C      0.920850000000     0.648970000000     0.120320000000     0.0323833  
C318     C      0.865550000000     0.593410000000     0.120300000000     0.0324735  
C319     C      0.842470000000     0.616440000000     0.153590000000     0.032324   
C320     C      0.897770000000     0.672010000000     0.153620000000     0.032435   
C321     C      0.921480000000     0.867100000000     0.402670000000     0.0316186  
C322     C      0.866250000000     0.922690000000     0.402620000000     0.0316411  
C323     C      0.841840000000     0.898320000000     0.371250000000     0.0315993  
C324     C      0.897070000000     0.842730000000     0.371300000000     0.0316137  
C325     C      0.866250000000     0.592730000000     0.402630000000     0.0316565  
C326     C      0.921490000000     0.648320000000     0.402660000000     0.0315548  
C327     C      0.897070000000     0.672690000000     0.371290000000     0.0316639  
C328     C      0.841830000000     0.617100000000     0.371260000000     0.0315561  
C329     C      0.616250000000     0.842730000000     0.371300000000     0.0316155  
C330     C      0.671480000000     0.898320000000     0.371250000000     0.0316239  
C331     C      0.647070000000     0.922690000000     0.402620000000     0.0315735  
C332     C      0.591830000000     0.867100000000     0.402670000000     0.0316104  
C333     C      0.842470000000     0.898970000000     0.153590000000     0.0324258  
C334     C      0.897780000000     0.843410000000     0.153630000000     0.0323838  
C335     C      0.920850000000     0.866450000000     0.120330000000     0.0324007  
C336     C      0.865540000000     0.922010000000     0.120290000000     0.0324024  
C337     C      0.929660000000     0.930640000000     0.949820000000     0.394155   
C338     C      0.583660000000     0.584770000000     0.949820000000     0.394062   
C339     C      0.929660000000     0.584770000000     0.949820000000     0.394133   
C340     C      0.583660000000     0.930640000000     0.949820000000     0.394045   
C341     C      0.585460000000     0.928850000000     0.571570000000     0.40011    
C342     C      0.927860000000     0.586570000000     0.571570000000     0.399986   
C343     C      0.927860000000     0.928850000000     0.571570000000     0.399996   
C344     C      0.585460000000     0.586570000000     0.571570000000     0.400099   
C345     C      0.835460000000     0.836570000000     0.702350000000     0.400016   
C346     C      0.677860000000     0.678840000000     0.702350000000     0.399986   
C347     C      0.835460000000     0.678840000000     0.702350000000     0.400032   
C348     C      0.677860000000     0.836570000000     0.702350000000     0.400008   
C349     C      0.679660000000     0.834770000000     0.824100000000     0.39403    
C350     C      0.833660000000     0.680640000000     0.824100000000     0.39402    
C351     C      0.833660000000     0.834770000000     0.824100000000     0.394035   
C352     C      0.679660000000     0.680640000000     0.824100000000     0.394047   
C353     C      0.592470000000     0.648970000000     0.620320000000     0.0324144  
C354     C      0.647770000000     0.593400000000     0.620300000000     0.0324187  
C355     C      0.670850000000     0.616440000000     0.653600000000     0.0323523  
C356     C      0.615550000000     0.672010000000     0.653620000000     0.0324635  
C357     C      0.616250000000     0.672700000000     0.871310000000     0.0315817  
C358     C      0.671480000000     0.617090000000     0.871240000000     0.0315892  
C359     C      0.647060000000     0.592720000000     0.902610000000     0.031608   
C360     C      0.591840000000     0.648330000000     0.902670000000     0.0316368  
C361     C      0.592470000000     0.866440000000     0.620320000000     0.0323767  
C362     C      0.647770000000     0.922010000000     0.620300000000     0.0324383  
C363     C      0.670850000000     0.898970000000     0.653590000000     0.0323865  
C364     C      0.615550000000     0.843400000000     0.653620000000     0.032459   
C365     C      0.920850000000     0.648970000000     0.620320000000     0.0324014  
C366     C      0.865550000000     0.593410000000     0.620300000000     0.0324919  
C367     C      0.842470000000     0.616440000000     0.653590000000     0.0323327  
C368     C      0.897770000000     0.672010000000     0.653620000000     0.0324444  
C369     C      0.921480000000     0.867100000000     0.902670000000     0.0316407  
C370     C      0.866250000000     0.922690000000     0.902620000000     0.0316625  
C371     C      0.841840000000     0.898320000000     0.871250000000     0.0316169  
C372     C      0.897070000000     0.842730000000     0.871300000000     0.0316318  
C373     C      0.866250000000     0.592730000000     0.902620000000     0.0316586  
C374     C      0.921490000000     0.648320000000     0.902660000000     0.0315746  
C375     C      0.897070000000     0.672690000000     0.871290000000     0.0316832  
C376     C      0.841830000000     0.617100000000     0.871260000000     0.0315782  
C377     C      0.616250000000     0.842730000000     0.871300000000     0.0316334  
C378     C      0.671480000000     0.898320000000     0.871250000000     0.0316416  
C379     C      0.647070000000     0.922690000000     0.902620000000     0.031595   
C380     C      0.591830000000     0.867100000000     0.902670000000     0.0316318  
C381     C      0.842470000000     0.898970000000     0.653590000000     0.0324331  
C382     C      0.897780000000     0.843410000000     0.653620000000     0.0323772  
C383     C      0.920850000000     0.866450000000     0.620330000000     0.0324214  
C384     C      0.865540000000     0.922010000000     0.620290000000     0.0324215  
Co1      Co     0.006660000000     0.441800000000     0.512170000000     0.842239   
Co2      Co     0.506660000000     0.073620000000     0.012170000000     0.841927   
Co3      Co     0.440930000000     0.507710000000     0.512150000000     0.844032   
Co4      Co     0.072380000000     0.507710000000     0.012150000000     0.843528   
Co5      Co     0.256660000000     0.323620000000     0.261750000000     0.842415   
Co6      Co     0.256660000000     0.191790000000     0.261750000000     0.84258    
Co7      Co     0.322380000000     0.257710000000     0.261770000000     0.844024   
Co8      Co     0.190930000000     0.257710000000     0.261770000000     0.844012   
Co9      Co     0.006660000000     0.441800000000     0.012170000000     0.841761   
Co10     Co     0.506660000000     0.073620000000     0.512170000000     0.842447   
Co11     Co     0.440930000000     0.507710000000     0.012150000000     0.843602   
Co12     Co     0.072380000000     0.507710000000     0.512150000000     0.844043   
Co13     Co     0.256660000000     0.323620000000     0.761750000000     0.842414   
Co14     Co     0.256660000000     0.191790000000     0.761750000000     0.842536   
Co15     Co     0.322380000000     0.257710000000     0.761770000000     0.844027   
Co16     Co     0.190930000000     0.257710000000     0.761770000000     0.844012   
Co17     Co     0.006660000000     0.941790000000     0.512170000000     0.842479   
Co18     Co     0.506660000000     0.573620000000     0.012170000000     0.841924   
Co19     Co     0.440930000000     0.007710000000     0.512150000000     0.843843   
Co20     Co     0.072380000000     0.007710000000     0.012150000000     0.843357   
Co21     Co     0.256660000000     0.823620000000     0.261750000000     0.842419   
Co22     Co     0.256660000000     0.691790000000     0.261750000000     0.842588   
Co23     Co     0.322380000000     0.757710000000     0.261770000000     0.844013   
Co24     Co     0.190930000000     0.757710000000     0.261770000000     0.844018   
Co25     Co     0.006660000000     0.941790000000     0.012170000000     0.842001   
Co26     Co     0.506660000000     0.573620000000     0.512170000000     0.842444   
Co27     Co     0.440930000000     0.007710000000     0.012150000000     0.843413   
Co28     Co     0.072380000000     0.007710000000     0.512150000000     0.843873   
Co29     Co     0.256660000000     0.823620000000     0.761750000000     0.842417   
Co30     Co     0.256660000000     0.691790000000     0.761750000000     0.842543   
Co31     Co     0.322380000000     0.757710000000     0.761770000000     0.844016   
Co32     Co     0.190930000000     0.757710000000     0.761770000000     0.844018   
Co33     Co     0.506660000000     0.441800000000     0.512170000000     0.842441   
Co34     Co     0.006660000000     0.073620000000     0.012170000000     0.841743   
Co35     Co     0.940930000000     0.507710000000     0.512150000000     0.844173   
Co36     Co     0.572380000000     0.507710000000     0.012150000000     0.843519   
Co37     Co     0.756660000000     0.323620000000     0.261750000000     0.842417   
Co38     Co     0.756660000000     0.191790000000     0.261750000000     0.842553   
Co39     Co     0.822380000000     0.257710000000     0.261770000000     0.843986   
Co40     Co     0.690940000000     0.257710000000     0.261770000000     0.843907   
Co41     Co     0.506660000000     0.441800000000     0.012170000000     0.841963   
Co42     Co     0.006660000000     0.073620000000     0.512170000000     0.842263   
Co43     Co     0.940930000000     0.507710000000     0.012150000000     0.843743   
Co44     Co     0.572380000000     0.507710000000     0.512150000000     0.844035   
Co45     Co     0.756660000000     0.323620000000     0.761750000000     0.842415   
Co46     Co     0.756660000000     0.191790000000     0.761750000000     0.842508   
Co47     Co     0.822380000000     0.257710000000     0.761770000000     0.843988   
Co48     Co     0.690940000000     0.257710000000     0.761770000000     0.843907   
Co49     Co     0.506660000000     0.941790000000     0.512170000000     0.842681   
Co50     Co     0.006660000000     0.573620000000     0.012170000000     0.84174    
Co51     Co     0.940930000000     0.007710000000     0.512150000000     0.843984   
Co52     Co     0.572380000000     0.007710000000     0.012150000000     0.843349   
Co53     Co     0.756660000000     0.823620000000     0.261750000000     0.84242    
Co54     Co     0.756660000000     0.691790000000     0.261750000000     0.84256    
Co55     Co     0.822380000000     0.757710000000     0.261770000000     0.843974   
Co56     Co     0.690940000000     0.757710000000     0.261770000000     0.843913   
Co57     Co     0.506660000000     0.941790000000     0.012170000000     0.842203   
Co58     Co     0.006660000000     0.573620000000     0.512170000000     0.84226    
Co59     Co     0.940930000000     0.007710000000     0.012150000000     0.843553   
Co60     Co     0.572380000000     0.007710000000     0.512150000000     0.843865   
Co61     Co     0.756660000000     0.823620000000     0.761750000000     0.842418   
Co62     Co     0.756660000000     0.691790000000     0.761750000000     0.842516   
Co63     Co     0.822380000000     0.757710000000     0.761770000000     0.843977   
Co64     Co     0.690940000000     0.757710000000     0.761770000000     0.843913   
H1       H      0.061570000000     0.163170000000     0.108340000000     0.0449313  
H2       H      0.161840000000     0.062400000000     0.108300000000     0.0449757  
H3       H      0.201750000000     0.102250000000     0.165580000000     0.0449756  
H4       H      0.101470000000     0.203010000000     0.165620000000     0.0449928  
H5       H      0.102600000000     0.204120000000     0.359940000000     0.0450124  
H6       H      0.202750000000     0.103270000000     0.359830000000     0.0449633  
H7       H      0.160720000000     0.061300000000     0.413970000000     0.0449797  
H8       H      0.060560000000     0.162150000000     0.414090000000     0.0449475  
H9       H      0.061570000000     0.352250000000     0.108340000000     0.0449508  
H10      H      0.161850000000     0.453010000000     0.108300000000     0.0449882  
H11      H      0.201750000000     0.413170000000     0.165580000000     0.0449736  
H12      H      0.101470000000     0.312410000000     0.165620000000     0.0449866  
H13      H      0.451750000000     0.163170000000     0.108340000000     0.0449605  
H14      H      0.351470000000     0.062410000000     0.108300000000     0.0449618  
H15      H      0.311570000000     0.102250000000     0.165580000000     0.0449645  
H16      H      0.411850000000     0.203010000000     0.165620000000     0.0450078  
H17      H      0.452760000000     0.353280000000     0.414070000000     0.0449539  
H18      H      0.352590000000     0.454110000000     0.413990000000     0.045017   
H19      H      0.310550000000     0.412140000000     0.359840000000     0.0449654  
H20      H      0.410730000000     0.311310000000     0.359930000000     0.0450376  
H21      H      0.352590000000     0.061310000000     0.414000000000     0.0450062  
H22      H      0.452770000000     0.162130000000     0.414070000000     0.0449754  
H23      H      0.410730000000     0.204110000000     0.359920000000     0.0450206  
H24      H      0.310550000000     0.103280000000     0.359850000000     0.0449533  
H25      H      0.102590000000     0.311310000000     0.359930000000     0.0450116  
H26      H      0.202760000000     0.412140000000     0.359840000000     0.0449721  
H27      H      0.160730000000     0.454110000000     0.413990000000     0.0450144  
H28      H      0.060550000000     0.353280000000     0.414080000000     0.0449366  
H29      H      0.311560000000     0.413160000000     0.165570000000     0.0449746  
H30      H      0.411860000000     0.312410000000     0.165630000000     0.0449991  
H31      H      0.451760000000     0.352260000000     0.108350000000     0.0449731  
H32      H      0.351460000000     0.453000000000     0.108280000000     0.0450025  
H33      H      0.061570000000     0.163170000000     0.608340000000     0.044956   
H34      H      0.161840000000     0.062400000000     0.608300000000     0.0449968  
H35      H      0.201750000000     0.102250000000     0.665580000000     0.0449826  
H36      H      0.101470000000     0.203010000000     0.665620000000     0.0450003  
H37      H      0.102600000000     0.204120000000     0.859940000000     0.0450187  
H38      H      0.202750000000     0.103270000000     0.859830000000     0.0449728  
H39      H      0.160720000000     0.061300000000     0.913970000000     0.0450059  
H40      H      0.060560000000     0.162150000000     0.914090000000     0.0449837  
H41      H      0.061570000000     0.352250000000     0.608340000000     0.0449747  
H42      H      0.161850000000     0.453010000000     0.608300000000     0.0450106  
H43      H      0.201750000000     0.413170000000     0.665580000000     0.0449889  
H44      H      0.101470000000     0.312410000000     0.665620000000     0.0449945  
H45      H      0.451750000000     0.163170000000     0.608340000000     0.0449844  
H46      H      0.351470000000     0.062410000000     0.608290000000     0.0449898  
H47      H      0.311570000000     0.102250000000     0.665570000000     0.0449673  
H48      H      0.411850000000     0.203010000000     0.665620000000     0.0450152  
H49      H      0.452760000000     0.353280000000     0.914080000000     0.044985   
H50      H      0.352590000000     0.454110000000     0.913990000000     0.0450424  
H51      H      0.310550000000     0.412140000000     0.859840000000     0.0449725  
H52      H      0.410730000000     0.311310000000     0.859930000000     0.0450449  
H53      H      0.352590000000     0.061310000000     0.914000000000     0.0450374  
H54      H      0.452770000000     0.162130000000     0.914070000000     0.0450033  
H55      H      0.410730000000     0.204110000000     0.859920000000     0.0450274  
H56      H      0.310550000000     0.103280000000     0.859850000000     0.0449603  
H57      H      0.102590000000     0.311310000000     0.859930000000     0.0450187  
H58      H      0.202760000000     0.412140000000     0.859840000000     0.0449792  
H59      H      0.160730000000     0.454110000000     0.913990000000     0.0450407  
H60      H      0.060550000000     0.353280000000     0.914080000000     0.0449628  
H61      H      0.311560000000     0.413160000000     0.665560000000     0.0449778  
H62      H      0.411860000000     0.312410000000     0.665630000000     0.0450143  
H63      H      0.451760000000     0.352260000000     0.608350000000     0.0449966  
H64      H      0.351460000000     0.453000000000     0.608280000000     0.0450255  
H65      H      0.061570000000     0.663170000000     0.108340000000     0.0449297  
H66      H      0.161840000000     0.562400000000     0.108300000000     0.0449991  
H67      H      0.201750000000     0.602250000000     0.165580000000     0.0449872  
H68      H      0.101470000000     0.703010000000     0.165620000000     0.0449889  
H69      H      0.102600000000     0.704120000000     0.359940000000     0.0450139  
H70      H      0.202750000000     0.603270000000     0.359830000000     0.0449781  
H71      H      0.160720000000     0.561300000000     0.413970000000     0.0450055  
H72      H      0.060560000000     0.662150000000     0.414090000000     0.0449468  
H73      H      0.061570000000     0.852250000000     0.108340000000     0.0449449  
H74      H      0.161850000000     0.953010000000     0.108300000000     0.0450162  
H75      H      0.201750000000     0.913170000000     0.165580000000     0.0449881  
H76      H      0.101470000000     0.812400000000     0.165620000000     0.0449944  
H77      H      0.451750000000     0.663170000000     0.108340000000     0.0449605  
H78      H      0.351470000000     0.562410000000     0.108300000000     0.0449794  
H79      H      0.311570000000     0.602250000000     0.165580000000     0.044996   
H80      H      0.411850000000     0.703010000000     0.165620000000     0.0450053  
H81      H      0.452760000000     0.853280000000     0.414070000000     0.0449598  
H82      H      0.352590000000     0.954110000000     0.413990000000     0.0450458  
H83      H      0.310550000000     0.912140000000     0.359840000000     0.0449786  
H84      H      0.410730000000     0.811310000000     0.359930000000     0.0450278  
H85      H      0.352590000000     0.561310000000     0.414000000000     0.0450323  
H86      H      0.452770000000     0.662130000000     0.414070000000     0.0449755  
H87      H      0.410730000000     0.704110000000     0.359920000000     0.0450204  
H88      H      0.310550000000     0.603280000000     0.359850000000     0.0449654  
H89      H      0.102590000000     0.811310000000     0.359930000000     0.0450028  
H90      H      0.202760000000     0.912140000000     0.359840000000     0.0449854  
H91      H      0.160730000000     0.954110000000     0.413990000000     0.0450433  
H92      H      0.060550000000     0.853280000000     0.414080000000     0.0449425  
H93      H      0.311560000000     0.913160000000     0.165570000000     0.0449887  
H94      H      0.411860000000     0.812410000000     0.165630000000     0.0449992  
H95      H      0.451760000000     0.852260000000     0.108350000000     0.0449724  
H96      H      0.351460000000     0.953000000000     0.108280000000     0.04503    
H97      H      0.061570000000     0.663170000000     0.608340000000     0.0449544  
H98      H      0.161840000000     0.562400000000     0.608300000000     0.0450202  
H99      H      0.201750000000     0.602250000000     0.665580000000     0.0449942  
H100     H      0.101470000000     0.703010000000     0.665620000000     0.0449963  
H101     H      0.102600000000     0.704120000000     0.859940000000     0.0450202  
H102     H      0.202750000000     0.603270000000     0.859830000000     0.0449876  
H103     H      0.160720000000     0.561300000000     0.913970000000     0.0450317  
H104     H      0.060560000000     0.662150000000     0.914090000000     0.044983   
H105     H      0.061570000000     0.852250000000     0.608340000000     0.0449687  
H106     H      0.161850000000     0.953010000000     0.608300000000     0.0450385  
H107     H      0.201750000000     0.913170000000     0.665580000000     0.0450034  
H108     H      0.101470000000     0.812400000000     0.665620000000     0.0450023  
H109     H      0.451750000000     0.663170000000     0.608340000000     0.0449843  
H110     H      0.351470000000     0.562410000000     0.608290000000     0.0450074  
H111     H      0.311570000000     0.602250000000     0.665570000000     0.0449989  
H112     H      0.411850000000     0.703010000000     0.665620000000     0.0450128  
H113     H      0.452760000000     0.853280000000     0.914080000000     0.0449909  
H114     H      0.352590000000     0.954110000000     0.913990000000     0.0450713  
H115     H      0.310550000000     0.912140000000     0.859840000000     0.0449857  
H116     H      0.410730000000     0.811310000000     0.859930000000     0.0450351  
H117     H      0.352590000000     0.561310000000     0.914000000000     0.0450636  
H118     H      0.452770000000     0.662130000000     0.914070000000     0.0450034  
H119     H      0.410730000000     0.704110000000     0.859920000000     0.0450271  
H120     H      0.310550000000     0.603280000000     0.859850000000     0.0449725  
H121     H      0.102590000000     0.811310000000     0.859930000000     0.0450099  
H122     H      0.202760000000     0.912140000000     0.859840000000     0.0449924  
H123     H      0.160730000000     0.954110000000     0.913990000000     0.0450696  
H124     H      0.060550000000     0.853280000000     0.914080000000     0.0449686  
H125     H      0.311560000000     0.913160000000     0.665560000000     0.0449918  
H126     H      0.411860000000     0.812410000000     0.665630000000     0.0450144  
H127     H      0.451760000000     0.852260000000     0.608350000000     0.0449959  
H128     H      0.351460000000     0.953000000000     0.608280000000     0.045053   
H129     H      0.561570000000     0.163170000000     0.108340000000     0.0449558  
H130     H      0.661840000000     0.062400000000     0.108300000000     0.044976   
H131     H      0.701750000000     0.102250000000     0.165580000000     0.0449764  
H132     H      0.601470000000     0.203010000000     0.165620000000     0.0450063  
H133     H      0.602600000000     0.204120000000     0.359940000000     0.0450299  
H134     H      0.702750000000     0.103270000000     0.359830000000     0.0449591  
H135     H      0.660710000000     0.061300000000     0.413970000000     0.0449976  
H136     H      0.560560000000     0.162150000000     0.414090000000     0.044964   
H137     H      0.561570000000     0.352250000000     0.108340000000     0.0449751  
H138     H      0.661850000000     0.453010000000     0.108300000000     0.0449886  
H139     H      0.701750000000     0.413170000000     0.165580000000     0.0449743  
H140     H      0.601470000000     0.312410000000     0.165620000000     0.0449999  
H141     H      0.951750000000     0.163170000000     0.108340000000     0.0449873  
H142     H      0.851470000000     0.062410000000     0.108300000000     0.0449621  
H143     H      0.811570000000     0.102250000000     0.165580000000     0.0449672  
H144     H      0.911850000000     0.203010000000     0.165620000000     0.0450269  
H145     H      0.952760000000     0.353280000000     0.414070000000     0.0449846  
H146     H      0.852590000000     0.454110000000     0.413990000000     0.0450125  
H147     H      0.810560000000     0.412140000000     0.359840000000     0.0449767  
H148     H      0.910730000000     0.311310000000     0.359930000000     0.0450401  
H149     H      0.852590000000     0.061310000000     0.414000000000     0.0449832  
H150     H      0.952770000000     0.162130000000     0.414070000000     0.0450161  
H151     H      0.910730000000     0.204110000000     0.359920000000     0.0450173  
H152     H      0.810550000000     0.103280000000     0.359850000000     0.044968   
H153     H      0.602590000000     0.311310000000     0.359930000000     0.0450241  
H154     H      0.702760000000     0.412140000000     0.359840000000     0.0449692  
H155     H      0.660720000000     0.454110000000     0.413990000000     0.0450348  
H156     H      0.560550000000     0.353280000000     0.414080000000     0.0449643  
H157     H      0.811560000000     0.413160000000     0.165570000000     0.0449766  
H158     H      0.911850000000     0.312410000000     0.165630000000     0.0450428  
H159     H      0.951760000000     0.352260000000     0.108350000000     0.0449912  
H160     H      0.851460000000     0.453000000000     0.108280000000     0.0450019  
H161     H      0.561570000000     0.163170000000     0.608340000000     0.0449805  
H162     H      0.661840000000     0.062400000000     0.608300000000     0.0449971  
H163     H      0.701750000000     0.102250000000     0.665580000000     0.0449833  
H164     H      0.601470000000     0.203010000000     0.665620000000     0.0450137  
H165     H      0.602600000000     0.204120000000     0.859940000000     0.0450362  
H166     H      0.702750000000     0.103270000000     0.859830000000     0.0449685  
H167     H      0.660710000000     0.061300000000     0.913970000000     0.0450239  
H168     H      0.560560000000     0.162150000000     0.914090000000     0.0450002  
H169     H      0.561570000000     0.352250000000     0.608340000000     0.044999   
H170     H      0.661850000000     0.453010000000     0.608300000000     0.045011   
H171     H      0.701750000000     0.413170000000     0.665580000000     0.0449896  
H172     H      0.601470000000     0.312410000000     0.665620000000     0.0450079  
H173     H      0.951750000000     0.163170000000     0.608340000000     0.0450112  
H174     H      0.851470000000     0.062410000000     0.608290000000     0.04499    
H175     H      0.811570000000     0.102250000000     0.665570000000     0.04497    
H176     H      0.911850000000     0.203010000000     0.665620000000     0.0450343  
H177     H      0.952760000000     0.353280000000     0.914080000000     0.0450157  
H178     H      0.852590000000     0.454110000000     0.913990000000     0.045038   
H179     H      0.810560000000     0.412140000000     0.859840000000     0.0449838  
H180     H      0.910730000000     0.311310000000     0.859930000000     0.0450473  
H181     H      0.852590000000     0.061310000000     0.914000000000     0.0450144  
H182     H      0.952770000000     0.162130000000     0.914070000000     0.045044   
H183     H      0.910730000000     0.204110000000     0.859920000000     0.0450241  
H184     H      0.810550000000     0.103280000000     0.859850000000     0.0449751  
H185     H      0.602590000000     0.311310000000     0.859930000000     0.0450312  
H186     H      0.702760000000     0.412140000000     0.859840000000     0.0449763  
H187     H      0.660720000000     0.454110000000     0.913990000000     0.0450611  
H188     H      0.560550000000     0.353280000000     0.914080000000     0.0449904  
H189     H      0.811560000000     0.413160000000     0.665560000000     0.0449797  
H190     H      0.911850000000     0.312410000000     0.665630000000     0.0450579  
H191     H      0.951760000000     0.352260000000     0.608350000000     0.0450147  
H192     H      0.851460000000     0.453000000000     0.608280000000     0.0450249  
H193     H      0.561570000000     0.663170000000     0.108340000000     0.0449543  
H194     H      0.661840000000     0.562400000000     0.108300000000     0.0449994  
H195     H      0.701750000000     0.602250000000     0.165580000000     0.044988   
H196     H      0.601470000000     0.703010000000     0.165620000000     0.0450023  
H197     H      0.602600000000     0.704120000000     0.359940000000     0.0450315  
H198     H      0.702750000000     0.603270000000     0.359830000000     0.0449738  
H199     H      0.660710000000     0.561300000000     0.413970000000     0.0450234  
H200     H      0.560560000000     0.662150000000     0.414090000000     0.0449633  
H201     H      0.561570000000     0.852250000000     0.108340000000     0.0449692  
H202     H      0.661850000000     0.953010000000     0.108300000000     0.0450165  
H203     H      0.701750000000     0.913170000000     0.165580000000     0.0449888  
H204     H      0.601470000000     0.812400000000     0.165620000000     0.0450078  
H205     H      0.951750000000     0.663170000000     0.108340000000     0.0449873  
H206     H      0.851470000000     0.562410000000     0.108300000000     0.0449797  
H207     H      0.811570000000     0.602250000000     0.165580000000     0.0449987  
H208     H      0.911850000000     0.703010000000     0.165620000000     0.0450244  
H209     H      0.952760000000     0.853280000000     0.414070000000     0.0449904  
H210     H      0.852590000000     0.954110000000     0.413990000000     0.0450414  
H211     H      0.810560000000     0.912140000000     0.359840000000     0.0449899  
H212     H      0.910730000000     0.811310000000     0.359930000000     0.0450303  
H213     H      0.852590000000     0.561310000000     0.414000000000     0.0450093  
H214     H      0.952770000000     0.662130000000     0.414070000000     0.0450162  
H215     H      0.910730000000     0.704110000000     0.359920000000     0.0450171  
H216     H      0.810550000000     0.603280000000     0.359850000000     0.0449802  
H217     H      0.602590000000     0.811310000000     0.359930000000     0.0450152  
H218     H      0.702760000000     0.912140000000     0.359840000000     0.0449825  
H219     H      0.660720000000     0.954110000000     0.413990000000     0.0450637  
H220     H      0.560550000000     0.853280000000     0.414080000000     0.0449701  
H221     H      0.811560000000     0.913160000000     0.165570000000     0.0449906  
H222     H      0.911850000000     0.812410000000     0.165630000000     0.0450428  
H223     H      0.951760000000     0.852260000000     0.108350000000     0.0449905  
H224     H      0.851460000000     0.953000000000     0.108280000000     0.0450294  
H225     H      0.561570000000     0.663170000000     0.608340000000     0.044979   
H226     H      0.661840000000     0.562400000000     0.608300000000     0.0450205  
H227     H      0.701750000000     0.602250000000     0.665580000000     0.0449949  
H228     H      0.601470000000     0.703010000000     0.665620000000     0.0450097  
H229     H      0.602600000000     0.704120000000     0.859940000000     0.0450377  
H230     H      0.702750000000     0.603270000000     0.859830000000     0.0449833  
H231     H      0.660710000000     0.561300000000     0.913970000000     0.0450496  
H232     H      0.560560000000     0.662150000000     0.914090000000     0.0449995  
H233     H      0.561570000000     0.852250000000     0.608340000000     0.044993   
H234     H      0.661850000000     0.953010000000     0.608300000000     0.0450389  
H235     H      0.701750000000     0.913170000000     0.665580000000     0.0450041  
H236     H      0.601470000000     0.812400000000     0.665620000000     0.0450157  
H237     H      0.951750000000     0.663170000000     0.608340000000     0.0450111  
H238     H      0.851470000000     0.562410000000     0.608290000000     0.0450076  
H239     H      0.811570000000     0.602250000000     0.665570000000     0.0450015  
H240     H      0.911850000000     0.703010000000     0.665620000000     0.0450319  
H241     H      0.952760000000     0.853280000000     0.914080000000     0.0450216  
H242     H      0.852590000000     0.954110000000     0.913990000000     0.0450668  
H243     H      0.810560000000     0.912140000000     0.859840000000     0.044997   
H244     H      0.910730000000     0.811310000000     0.859930000000     0.0450375  
H245     H      0.852590000000     0.561310000000     0.914000000000     0.0450406  
H246     H      0.952770000000     0.662130000000     0.914070000000     0.0450441  
H247     H      0.910730000000     0.704110000000     0.859920000000     0.0450238  
H248     H      0.810550000000     0.603280000000     0.859850000000     0.0449872  
H249     H      0.602590000000     0.811310000000     0.859930000000     0.0450223  
H250     H      0.702760000000     0.912140000000     0.859840000000     0.0449896  
H251     H      0.660720000000     0.954110000000     0.913990000000     0.04509    
H252     H      0.560550000000     0.853280000000     0.914080000000     0.0449963  
H253     H      0.811560000000     0.913160000000     0.665560000000     0.0449938  
H254     H      0.911850000000     0.812410000000     0.665630000000     0.045058   
H255     H      0.951760000000     0.852260000000     0.608350000000     0.045014   
H256     H      0.851460000000     0.953000000000     0.608280000000     0.0450524  
N1       N      0.108560000000     0.109650000000     0.103700000000    -0.172261   
N2       N      0.154750000000     0.155770000000     0.170220000000    -0.172237   
N3       N      0.156040000000     0.157050000000     0.355520000000    -0.171517   
N4       N      0.107280000000     0.108370000000     0.418400000000    -0.171468   
N5       N      0.108560000000     0.405770000000     0.103700000000    -0.172265   
N6       N      0.154750000000     0.359650000000     0.170220000000    -0.172253   
N7       N      0.404750000000     0.109650000000     0.103700000000    -0.172245   
N8       N      0.358560000000     0.155770000000     0.170220000000    -0.172287   
N9       N      0.406040000000     0.407050000000     0.418400000000    -0.171547   
N10      N      0.357270000000     0.358370000000     0.355520000000    -0.171502   
N11      N      0.406040000000     0.108370000000     0.418400000000    -0.171508   
N12      N      0.357270000000     0.157050000000     0.355520000000    -0.171537   
N13      N      0.156040000000     0.358370000000     0.355520000000    -0.171502   
N14      N      0.107280000000     0.407050000000     0.418400000000    -0.171527   
N15      N      0.358560000000     0.359650000000     0.170220000000    -0.172273   
N16      N      0.404750000000     0.405770000000     0.103700000000    -0.172223   
N17      N      0.108560000000     0.109650000000     0.603700000000    -0.172255   
N18      N      0.154750000000     0.155770000000     0.670220000000    -0.172236   
N19      N      0.156040000000     0.157050000000     0.855530000000    -0.171487   
N20      N      0.107280000000     0.108370000000     0.918390000000    -0.171411   
N21      N      0.108560000000     0.405770000000     0.603700000000    -0.172263   
N22      N      0.154750000000     0.359650000000     0.670220000000    -0.172245   
N23      N      0.404750000000     0.109650000000     0.603700000000    -0.172244   
N24      N      0.358560000000     0.155770000000     0.670220000000    -0.172284   
N25      N      0.406040000000     0.407050000000     0.918390000000    -0.171493   
N26      N      0.357270000000     0.358370000000     0.855530000000    -0.171468   
N27      N      0.406040000000     0.108370000000     0.918390000000    -0.171443   
N28      N      0.357270000000     0.157050000000     0.855530000000    -0.171503   
N29      N      0.156040000000     0.358370000000     0.855530000000    -0.171468   
N30      N      0.107280000000     0.407050000000     0.918390000000    -0.171471   
N31      N      0.358560000000     0.359650000000     0.670220000000    -0.172264   
N32      N      0.404750000000     0.405770000000     0.603700000000    -0.17222    
N33      N      0.108560000000     0.609650000000     0.103700000000    -0.172283   
N34      N      0.154750000000     0.655770000000     0.170220000000    -0.172258   
N35      N      0.156040000000     0.657050000000     0.355520000000    -0.171491   
N36      N      0.107280000000     0.608370000000     0.418400000000    -0.171466   
N37      N      0.108560000000     0.905770000000     0.103700000000    -0.172266   
N38      N      0.154750000000     0.859650000000     0.170220000000    -0.172243   
N39      N      0.404750000000     0.609650000000     0.103700000000    -0.172247   
N40      N      0.358560000000     0.655770000000     0.170220000000    -0.172288   
N41      N      0.406040000000     0.907050000000     0.418400000000    -0.17154    
N42      N      0.357270000000     0.858370000000     0.355520000000    -0.171514   
N43      N      0.406040000000     0.608370000000     0.418400000000    -0.171505   
N44      N      0.357270000000     0.657050000000     0.355520000000    -0.171537   
N45      N      0.156040000000     0.858370000000     0.355520000000    -0.171513   
N46      N      0.107280000000     0.907050000000     0.418400000000    -0.17152    
N47      N      0.358560000000     0.859650000000     0.170220000000    -0.172272   
N48      N      0.404750000000     0.905770000000     0.103700000000    -0.172221   
N49      N      0.108560000000     0.609650000000     0.603700000000    -0.172277   
N50      N      0.154750000000     0.655770000000     0.670220000000    -0.172256   
N51      N      0.156040000000     0.657050000000     0.855530000000    -0.171461   
N52      N      0.107280000000     0.608370000000     0.918390000000    -0.171409   
N53      N      0.108560000000     0.905770000000     0.603700000000    -0.172265   
N54      N      0.154750000000     0.859650000000     0.670220000000    -0.172235   
N55      N      0.404750000000     0.609650000000     0.603700000000    -0.172246   
N56      N      0.358560000000     0.655770000000     0.670220000000    -0.172285   
N57      N      0.406040000000     0.907050000000     0.918390000000    -0.171486   
N58      N      0.357270000000     0.858370000000     0.855530000000    -0.171479   
N59      N      0.406040000000     0.608370000000     0.918390000000    -0.17144    
N60      N      0.357270000000     0.657050000000     0.855530000000    -0.171503   
N61      N      0.156040000000     0.858370000000     0.855530000000    -0.171479   
N62      N      0.107280000000     0.907050000000     0.918390000000    -0.171464   
N63      N      0.358560000000     0.859650000000     0.670220000000    -0.172263   
N64      N      0.404750000000     0.905770000000     0.603700000000    -0.172218   
N65      N      0.608560000000     0.109650000000     0.103700000000    -0.172259   
N66      N      0.654750000000     0.155770000000     0.170220000000    -0.172233   
N67      N      0.656040000000     0.157050000000     0.355520000000    -0.171513   
N68      N      0.607270000000     0.108370000000     0.418400000000    -0.171513   
N69      N      0.608560000000     0.405770000000     0.103700000000    -0.172263   
N70      N      0.654750000000     0.359650000000     0.170220000000    -0.172248   
N71      N      0.904750000000     0.109650000000     0.103700000000    -0.172241   
N72      N      0.858560000000     0.155770000000     0.170220000000    -0.172266   
N73      N      0.906040000000     0.407050000000     0.418400000000    -0.171542   
N74      N      0.857280000000     0.358370000000     0.355520000000    -0.171472   
N75      N      0.906040000000     0.108370000000     0.418400000000    -0.17151    
N76      N      0.857280000000     0.157050000000     0.355520000000    -0.17151    
N77      N      0.656040000000     0.358370000000     0.355520000000    -0.171479   
N78      N      0.607270000000     0.407050000000     0.418400000000    -0.171535   
N79      N      0.858560000000     0.359650000000     0.170220000000    -0.172248   
N80      N      0.904750000000     0.405770000000     0.103700000000    -0.172224   
N81      N      0.608560000000     0.109650000000     0.603700000000    -0.172253   
N82      N      0.654750000000     0.155770000000     0.670220000000    -0.172231   
N83      N      0.656040000000     0.157050000000     0.855530000000    -0.171483   
N84      N      0.607270000000     0.108370000000     0.918390000000    -0.171456   
N85      N      0.608560000000     0.405770000000     0.603700000000    -0.172261   
N86      N      0.654750000000     0.359650000000     0.670220000000    -0.17224    
N87      N      0.904750000000     0.109650000000     0.603700000000    -0.172239   
N88      N      0.858560000000     0.155770000000     0.670220000000    -0.172263   
N89      N      0.906040000000     0.407050000000     0.918390000000    -0.171488   
N90      N      0.857280000000     0.358370000000     0.855530000000    -0.171438   
N91      N      0.906040000000     0.108370000000     0.918390000000    -0.171444   
N92      N      0.857280000000     0.157050000000     0.855530000000    -0.171477   
N93      N      0.656040000000     0.358370000000     0.855530000000    -0.171445   
N94      N      0.607270000000     0.407050000000     0.918390000000    -0.17148    
N95      N      0.858560000000     0.359650000000     0.670220000000    -0.17224    
N96      N      0.904750000000     0.405770000000     0.603700000000    -0.172222   
N97      N      0.608560000000     0.609650000000     0.103700000000    -0.172281   
N98      N      0.654750000000     0.655770000000     0.170220000000    -0.172254   
N99      N      0.656040000000     0.657050000000     0.355520000000    -0.171487   
N100     N      0.607270000000     0.608370000000     0.418400000000    -0.171511   
N101     N      0.608560000000     0.905770000000     0.103700000000    -0.172264   
N102     N      0.654750000000     0.859650000000     0.170220000000    -0.172238   
N103     N      0.904750000000     0.609650000000     0.103700000000    -0.172243   
N104     N      0.858560000000     0.655770000000     0.170220000000    -0.172267   
N105     N      0.906040000000     0.907050000000     0.418400000000    -0.171535   
N106     N      0.857280000000     0.858370000000     0.355520000000    -0.171483   
N107     N      0.906040000000     0.608370000000     0.418400000000    -0.171507   
N108     N      0.857280000000     0.657050000000     0.355520000000    -0.17151    
N109     N      0.656040000000     0.858370000000     0.355520000000    -0.17149    
N110     N      0.607270000000     0.907050000000     0.418400000000    -0.171528   
N111     N      0.858560000000     0.859650000000     0.170220000000    -0.172247   
N112     N      0.904750000000     0.905770000000     0.103700000000    -0.172222   
N113     N      0.608560000000     0.609650000000     0.603700000000    -0.172274   
N114     N      0.654750000000     0.655770000000     0.670220000000    -0.172252   
N115     N      0.656040000000     0.657050000000     0.855530000000    -0.171457   
N116     N      0.607270000000     0.608370000000     0.918390000000    -0.171454   
N117     N      0.608560000000     0.905770000000     0.603700000000    -0.172262   
N118     N      0.654750000000     0.859650000000     0.670220000000    -0.17223    
N119     N      0.904750000000     0.609650000000     0.603700000000    -0.172241   
N120     N      0.858560000000     0.655770000000     0.670220000000    -0.172264   
N121     N      0.906040000000     0.907050000000     0.918390000000    -0.171482   
N122     N      0.857280000000     0.858370000000     0.855530000000    -0.171449   
N123     N      0.906040000000     0.608370000000     0.918390000000    -0.171442   
N124     N      0.857280000000     0.657050000000     0.855530000000    -0.171476   
N125     N      0.656040000000     0.858370000000     0.855530000000    -0.171456   
N126     N      0.607270000000     0.907050000000     0.918390000000    -0.171473   
N127     N      0.858560000000     0.859650000000     0.670220000000    -0.172239   
N128     N      0.904750000000     0.905770000000     0.603700000000    -0.17222    
O1       O      0.466440000000     0.415130000000     0.464600000000    -0.366928   
O2       O      0.046870000000     0.100290000000     0.464610000000    -0.366828   
O3       O      0.414290000000     0.047860000000     0.464540000000    -0.367205   
O4       O      0.099030000000     0.467560000000     0.464540000000    -0.367042   
O5       O      0.466440000000     0.100290000000     0.464600000000    -0.366923   
O6       O      0.046870000000     0.415130000000     0.464600000000    -0.366877   
O7       O      0.099030000000     0.047850000000     0.464540000000    -0.367059   
O8       O      0.414290000000     0.467560000000     0.464540000000    -0.367113   
O9       O      0.048570000000     0.413450000000     0.057010000000    -0.35995    
O10      O      0.464750000000     0.101970000000     0.057010000000    -0.359912   
O11      O      0.412570000000     0.465830000000     0.057000000000    -0.360163   
O12      O      0.100740000000     0.049580000000     0.057010000000    -0.360152   
O13      O      0.048570000000     0.101970000000     0.057010000000    -0.359929   
O14      O      0.464750000000     0.413450000000     0.057010000000    -0.359919   
O15      O      0.100740000000     0.465830000000     0.057000000000    -0.360204   
O16      O      0.412570000000     0.049590000000     0.057000000000    -0.360166   
O17      O      0.506660000000     0.507710000000     0.530140000000    -0.590399   
O18      O      0.298570000000     0.351970000000     0.216910000000    -0.359925   
O19      O      0.214750000000     0.163450000000     0.216910000000    -0.35998    
O20      O      0.350740000000     0.215830000000     0.216910000000    -0.360215   
O21      O      0.162570000000     0.299590000000     0.216910000000    -0.360155   
O22      O      0.298570000000     0.163450000000     0.216910000000    -0.36001    
O23      O      0.214750000000     0.351970000000     0.216910000000    -0.359932   
O24      O      0.162570000000     0.215830000000     0.216910000000    -0.360167   
O25      O      0.350750000000     0.299590000000     0.216920000000    -0.360127   
O26      O      0.216440000000     0.350290000000     0.309320000000    -0.366895   
O27      O      0.296870000000     0.165130000000     0.309320000000    -0.366907   
O28      O      0.349030000000     0.297860000000     0.309370000000    -0.367133   
O29      O      0.164290000000     0.217560000000     0.309380000000    -0.367112   
O30      O      0.216440000000     0.165130000000     0.309310000000    -0.366978   
O31      O      0.296870000000     0.350290000000     0.309320000000    -0.366838   
O32      O      0.164290000000     0.297860000000     0.309370000000    -0.367196   
O33      O      0.349030000000     0.217560000000     0.309370000000    -0.367072   
O34      O      0.256660000000     0.257710000000     0.243780000000    -0.590368   
O35      O      0.466440000000     0.415130000000     0.964600000000    -0.366675   
O36      O      0.046870000000     0.100290000000     0.964600000000    -0.366569   
O37      O      0.414290000000     0.047860000000     0.964550000000    -0.366953   
O38      O      0.099030000000     0.467560000000     0.964540000000    -0.366782   
O39      O      0.466440000000     0.100290000000     0.964600000000    -0.366647   
O40      O      0.046870000000     0.415130000000     0.964600000000    -0.366621   
O41      O      0.099030000000     0.047850000000     0.964540000000    -0.366821   
O42      O      0.414290000000     0.467560000000     0.964540000000    -0.366863   
O43      O      0.048570000000     0.413450000000     0.557010000000    -0.35995    
O44      O      0.464750000000     0.101970000000     0.557010000000    -0.359917   
O45      O      0.412570000000     0.465830000000     0.557000000000    -0.360157   
O46      O      0.100740000000     0.049580000000     0.557000000000    -0.360153   
O47      O      0.048570000000     0.101970000000     0.557010000000    -0.35991    
O48      O      0.464750000000     0.413450000000     0.557010000000    -0.359916   
O49      O      0.100740000000     0.465830000000     0.557000000000    -0.360209   
O50      O      0.412570000000     0.049590000000     0.557000000000    -0.360171   
O51      O      0.506660000000     0.507710000000     0.030140000000    -0.590239   
O52      O      0.298570000000     0.351970000000     0.716910000000    -0.359921   
O53      O      0.214750000000     0.163450000000     0.716910000000    -0.359981   
O54      O      0.350740000000     0.215830000000     0.716910000000    -0.360212   
O55      O      0.162570000000     0.299590000000     0.716910000000    -0.360153   
O56      O      0.298570000000     0.163450000000     0.716910000000    -0.360002   
O57      O      0.214750000000     0.351970000000     0.716910000000    -0.359929   
O58      O      0.162570000000     0.215830000000     0.716910000000    -0.360167   
O59      O      0.350750000000     0.299590000000     0.716920000000    -0.360125   
O60      O      0.216440000000     0.350290000000     0.809320000000    -0.366879   
O61      O      0.296870000000     0.165130000000     0.809320000000    -0.366885   
O62      O      0.349030000000     0.297860000000     0.809370000000    -0.367117   
O63      O      0.164290000000     0.217560000000     0.809380000000    -0.36711    
O64      O      0.216440000000     0.165130000000     0.809320000000    -0.366957   
O65      O      0.296870000000     0.350290000000     0.809320000000    -0.366822   
O66      O      0.164290000000     0.297860000000     0.809370000000    -0.367179   
O67      O      0.349030000000     0.217560000000     0.809370000000    -0.367056   
O68      O      0.256660000000     0.257710000000     0.743780000000    -0.590355   
O69      O      0.466440000000     0.915130000000     0.464600000000    -0.366966   
O70      O      0.046870000000     0.600290000000     0.464610000000    -0.366826   
O71      O      0.414290000000     0.547860000000     0.464540000000    -0.36719    
O72      O      0.099030000000     0.967560000000     0.464540000000    -0.366961   
O73      O      0.466440000000     0.600290000000     0.464600000000    -0.366923   
O74      O      0.046870000000     0.915130000000     0.464600000000    -0.366916   
O75      O      0.099030000000     0.547850000000     0.464540000000    -0.367039   
O76      O      0.414290000000     0.967560000000     0.464540000000    -0.36703    
O77      O      0.048570000000     0.913450000000     0.057010000000    -0.359992   
O78      O      0.464750000000     0.601970000000     0.057010000000    -0.359912   
O79      O      0.412570000000     0.965830000000     0.057000000000    -0.360082   
O80      O      0.100740000000     0.549590000000     0.057010000000    -0.360208   
O81      O      0.048570000000     0.601970000000     0.057010000000    -0.359965   
O82      O      0.464750000000     0.913450000000     0.057010000000    -0.35996    
O83      O      0.100740000000     0.965830000000     0.057000000000    -0.360118   
O84      O      0.412570000000     0.549590000000     0.057000000000    -0.360154   
O85      O      0.506660000000     0.007710000000     0.530140000000    -0.590401   
O86      O      0.298570000000     0.851970000000     0.216910000000    -0.359919   
O87      O      0.214750000000     0.663450000000     0.216910000000    -0.359992   
O88      O      0.350740000000     0.715830000000     0.216910000000    -0.360136   
O89      O      0.162570000000     0.799590000000     0.216910000000    -0.360157   
O90      O      0.298570000000     0.663450000000     0.216910000000    -0.360019   
O91      O      0.214750000000     0.851970000000     0.216910000000    -0.359926   
O92      O      0.162570000000     0.715830000000     0.216910000000    -0.360095   
O93      O      0.350750000000     0.799590000000     0.216920000000    -0.360128   
O94      O      0.216440000000     0.850290000000     0.309320000000    -0.36689    
O95      O      0.296870000000     0.665130000000     0.309320000000    -0.366905   
O96      O      0.349030000000     0.797860000000     0.309370000000    -0.367134   
O97      O      0.164290000000     0.717570000000     0.309380000000    -0.367044   
O98      O      0.216440000000     0.665130000000     0.309310000000    -0.366938   
O99      O      0.296870000000     0.850290000000     0.309320000000    -0.366834   
O100     O      0.164290000000     0.797860000000     0.309370000000    -0.36719    
O101     O      0.349030000000     0.717560000000     0.309370000000    -0.367073   
O102     O      0.256660000000     0.757710000000     0.243780000000    -0.590366   
O103     O      0.466440000000     0.915130000000     0.964600000000    -0.366713   
O104     O      0.046870000000     0.600290000000     0.964600000000    -0.366568   
O105     O      0.414290000000     0.547860000000     0.964550000000    -0.366937   
O106     O      0.099030000000     0.967560000000     0.964540000000    -0.366701   
O107     O      0.466440000000     0.600290000000     0.964600000000    -0.366647   
O108     O      0.046870000000     0.915130000000     0.964600000000    -0.36666    
O109     O      0.099030000000     0.547850000000     0.964540000000    -0.366801   
O110     O      0.414290000000     0.967560000000     0.964540000000    -0.366781   
O111     O      0.048570000000     0.913450000000     0.557010000000    -0.359992   
O112     O      0.464750000000     0.601970000000     0.557010000000    -0.359917   
O113     O      0.412570000000     0.965830000000     0.557000000000    -0.360076   
O114     O      0.100740000000     0.549590000000     0.557000000000    -0.360209   
O115     O      0.048570000000     0.601970000000     0.557010000000    -0.359947   
O116     O      0.464750000000     0.913450000000     0.557010000000    -0.359958   
O117     O      0.100740000000     0.965830000000     0.557000000000    -0.360123   
O118     O      0.412570000000     0.549590000000     0.557000000000    -0.360158   
O119     O      0.506660000000     0.007710000000     0.030140000000    -0.590241   
O120     O      0.298570000000     0.851970000000     0.716910000000    -0.359916   
O121     O      0.214750000000     0.663450000000     0.716910000000    -0.359994   
O122     O      0.350740000000     0.715830000000     0.716910000000    -0.360134   
O123     O      0.162570000000     0.799590000000     0.716910000000    -0.360156   
O124     O      0.298570000000     0.663450000000     0.716910000000    -0.360011   
O125     O      0.214750000000     0.851970000000     0.716910000000    -0.359924   
O126     O      0.162570000000     0.715830000000     0.716910000000    -0.360094   
O127     O      0.350750000000     0.799590000000     0.716920000000    -0.360126   
O128     O      0.216440000000     0.850290000000     0.809320000000    -0.366874   
O129     O      0.296870000000     0.665130000000     0.809320000000    -0.366883   
O130     O      0.349030000000     0.797860000000     0.809370000000    -0.367118   
O131     O      0.164290000000     0.717570000000     0.809380000000    -0.367042   
O132     O      0.216440000000     0.665130000000     0.809320000000    -0.366918   
O133     O      0.296870000000     0.850290000000     0.809320000000    -0.366817   
O134     O      0.164290000000     0.797860000000     0.809370000000    -0.367173   
O135     O      0.349030000000     0.717560000000     0.809370000000    -0.367056   
O136     O      0.256660000000     0.757710000000     0.743780000000    -0.590354   
O137     O      0.966440000000     0.415130000000     0.464600000000    -0.366842   
O138     O      0.546880000000     0.100290000000     0.464610000000    -0.366892   
O139     O      0.914290000000     0.047860000000     0.464540000000    -0.367204   
O140     O      0.599030000000     0.467560000000     0.464540000000    -0.367052   
O141     O      0.966440000000     0.100290000000     0.464600000000    -0.36683    
O142     O      0.546870000000     0.415130000000     0.464600000000    -0.366871   
O143     O      0.599030000000     0.047850000000     0.464540000000    -0.367108   
O144     O      0.914290000000     0.467560000000     0.464540000000    -0.36711    
O145     O      0.548570000000     0.413450000000     0.057010000000    -0.35994    
O146     O      0.964750000000     0.101970000000     0.057010000000    -0.359828   
O147     O      0.912570000000     0.465830000000     0.057000000000    -0.36016    
O148     O      0.600740000000     0.049580000000     0.057010000000    -0.360151   
O149     O      0.548570000000     0.101970000000     0.057010000000    -0.359914   
O150     O      0.964750000000     0.413450000000     0.057010000000    -0.359833   
O151     O      0.600740000000     0.465830000000     0.057000000000    -0.360205   
O152     O      0.912570000000     0.049590000000     0.057000000000    -0.360164   
O153     O      0.006660000000     0.507710000000     0.530140000000    -0.590435   
O154     O      0.798570000000     0.351970000000     0.216910000000    -0.359922   
O155     O      0.714750000000     0.163450000000     0.216910000000    -0.359972   
O156     O      0.850750000000     0.215830000000     0.216910000000    -0.36013    
O157     O      0.662570000000     0.299590000000     0.216910000000    -0.360106   
O158     O      0.798570000000     0.163450000000     0.216910000000    -0.35999    
O159     O      0.714750000000     0.351970000000     0.216910000000    -0.359928   
O160     O      0.662570000000     0.215830000000     0.216910000000    -0.360117   
O161     O      0.850750000000     0.299590000000     0.216920000000    -0.360119   
O162     O      0.716450000000     0.350290000000     0.309320000000    -0.36682    
O163     O      0.796870000000     0.165130000000     0.309320000000    -0.366895   
O164     O      0.849030000000     0.297860000000     0.309370000000    -0.36711    
O165     O      0.664290000000     0.217560000000     0.309380000000    -0.367065   
O166     O      0.716440000000     0.165130000000     0.309310000000    -0.366971   
O167     O      0.796870000000     0.350290000000     0.309320000000    -0.366818   
O168     O      0.664290000000     0.297860000000     0.309370000000    -0.367113   
O169     O      0.849030000000     0.217560000000     0.309370000000    -0.367052   
O170     O      0.756660000000     0.257710000000     0.243780000000    -0.590404   
O171     O      0.966440000000     0.415130000000     0.964600000000    -0.366589   
O172     O      0.546880000000     0.100290000000     0.964600000000    -0.366633   
O173     O      0.914290000000     0.047860000000     0.964550000000    -0.366952   
O174     O      0.599030000000     0.467560000000     0.964540000000    -0.366792   
O175     O      0.966440000000     0.100290000000     0.964600000000    -0.366554   
O176     O      0.546870000000     0.415130000000     0.964600000000    -0.366614   
O177     O      0.599030000000     0.047850000000     0.964540000000    -0.36687    
O178     O      0.914290000000     0.467560000000     0.964540000000    -0.366861   
O179     O      0.548570000000     0.413450000000     0.557010000000    -0.35994    
O180     O      0.964750000000     0.101970000000     0.557010000000    -0.359833   
O181     O      0.912570000000     0.465830000000     0.557000000000    -0.360155   
O182     O      0.600740000000     0.049580000000     0.557000000000    -0.360152   
O183     O      0.548570000000     0.101970000000     0.557010000000    -0.359896   
O184     O      0.964750000000     0.413450000000     0.557010000000    -0.359831   
O185     O      0.600740000000     0.465830000000     0.557000000000    -0.36021    
O186     O      0.912570000000     0.049590000000     0.557000000000    -0.360168   
O187     O      0.006660000000     0.507710000000     0.030140000000    -0.590275   
O188     O      0.798570000000     0.351970000000     0.716910000000    -0.359919   
O189     O      0.714750000000     0.163450000000     0.716910000000    -0.359973   
O190     O      0.850750000000     0.215830000000     0.716910000000    -0.360128   
O191     O      0.662570000000     0.299590000000     0.716910000000    -0.360104   
O192     O      0.798570000000     0.163450000000     0.716910000000    -0.359983   
O193     O      0.714750000000     0.351970000000     0.716910000000    -0.359926   
O194     O      0.662570000000     0.215830000000     0.716910000000    -0.360117   
O195     O      0.850750000000     0.299590000000     0.716920000000    -0.360117   
O196     O      0.716450000000     0.350290000000     0.809320000000    -0.366803   
O197     O      0.796870000000     0.165130000000     0.809320000000    -0.366873   
O198     O      0.849030000000     0.297860000000     0.809370000000    -0.367094   
O199     O      0.664290000000     0.217560000000     0.809380000000    -0.367064   
O200     O      0.716440000000     0.165130000000     0.809320000000    -0.36695    
O201     O      0.796870000000     0.350290000000     0.809320000000    -0.366802   
O202     O      0.664290000000     0.297860000000     0.809370000000    -0.367096   
O203     O      0.849030000000     0.217560000000     0.809370000000    -0.367035   
O204     O      0.756660000000     0.257710000000     0.743780000000    -0.590392   
O205     O      0.966440000000     0.915130000000     0.464600000000    -0.36688    
O206     O      0.546880000000     0.600290000000     0.464610000000    -0.36689    
O207     O      0.914290000000     0.547860000000     0.464540000000    -0.367188   
O208     O      0.599030000000     0.967560000000     0.464540000000    -0.366971   
O209     O      0.966440000000     0.600290000000     0.464600000000    -0.36683    
O210     O      0.546870000000     0.915130000000     0.464600000000    -0.36691    
O211     O      0.599030000000     0.547850000000     0.464540000000    -0.367088   
O212     O      0.914290000000     0.967560000000     0.464540000000    -0.367027   
O213     O      0.548570000000     0.913450000000     0.057010000000    -0.359982   
O214     O      0.964750000000     0.601970000000     0.057010000000    -0.359828   
O215     O      0.912570000000     0.965830000000     0.057000000000    -0.360079   
O216     O      0.600740000000     0.549590000000     0.057010000000    -0.360207   
O217     O      0.548570000000     0.601970000000     0.057010000000    -0.359951   
O218     O      0.964750000000     0.913450000000     0.057010000000    -0.359875   
O219     O      0.600740000000     0.965830000000     0.057000000000    -0.360119   
O220     O      0.912570000000     0.549590000000     0.057000000000    -0.360152   
O221     O      0.006660000000     0.007710000000     0.530140000000    -0.590437   
O222     O      0.798570000000     0.851970000000     0.216910000000    -0.359917   
O223     O      0.714750000000     0.663450000000     0.216910000000    -0.359984   
O224     O      0.850750000000     0.715830000000     0.216910000000    -0.360051   
O225     O      0.662570000000     0.799590000000     0.216910000000    -0.360109   
O226     O      0.798570000000     0.663450000000     0.216910000000    -0.359999   
O227     O      0.714750000000     0.851970000000     0.216910000000    -0.359923   
O228     O      0.662570000000     0.715830000000     0.216910000000    -0.360044   
O229     O      0.850750000000     0.799590000000     0.216920000000    -0.360119   
O230     O      0.716450000000     0.850290000000     0.309320000000    -0.366815   
O231     O      0.796870000000     0.665130000000     0.309320000000    -0.366893   
O232     O      0.849030000000     0.797860000000     0.309370000000    -0.367111   
O233     O      0.664290000000     0.717570000000     0.309380000000    -0.366997   
O234     O      0.716440000000     0.665130000000     0.309310000000    -0.366931   
O235     O      0.796870000000     0.850290000000     0.309320000000    -0.366814   
O236     O      0.664290000000     0.797860000000     0.309370000000    -0.367107   
O237     O      0.849030000000     0.717560000000     0.309370000000    -0.367053   
O238     O      0.756660000000     0.757710000000     0.243780000000    -0.590402   
O239     O      0.966440000000     0.915130000000     0.964600000000    -0.366627   
O240     O      0.546880000000     0.600290000000     0.964600000000    -0.366632   
O241     O      0.914290000000     0.547860000000     0.964550000000    -0.366936   
O242     O      0.599030000000     0.967560000000     0.964540000000    -0.366712   
O243     O      0.966440000000     0.600290000000     0.964600000000    -0.366554   
O244     O      0.546870000000     0.915130000000     0.964600000000    -0.366654   
O245     O      0.599030000000     0.547850000000     0.964540000000    -0.36685    
O246     O      0.914290000000     0.967560000000     0.964540000000    -0.366778   
O247     O      0.548570000000     0.913450000000     0.557010000000    -0.359982   
O248     O      0.964750000000     0.601970000000     0.557010000000    -0.359833   
O249     O      0.912570000000     0.965830000000     0.557000000000    -0.360074   
O250     O      0.600740000000     0.549590000000     0.557000000000    -0.360208   
O251     O      0.548570000000     0.601970000000     0.557010000000    -0.359933   
O252     O      0.964750000000     0.913450000000     0.557010000000    -0.359872   
O253     O      0.600740000000     0.965830000000     0.557000000000    -0.360124   
O254     O      0.912570000000     0.549590000000     0.557000000000    -0.360156   
O255     O      0.006660000000     0.007710000000     0.030140000000    -0.590277   
O256     O      0.798570000000     0.851970000000     0.716910000000    -0.359913   
O257     O      0.714750000000     0.663450000000     0.716910000000    -0.359985   
O258     O      0.850750000000     0.715830000000     0.716910000000    -0.360049   
O259     O      0.662570000000     0.799590000000     0.716910000000    -0.360107   
O260     O      0.798570000000     0.663450000000     0.716910000000    -0.359991   
O261     O      0.714750000000     0.851970000000     0.716910000000    -0.35992    
O262     O      0.662570000000     0.715830000000     0.716910000000    -0.360044   
O263     O      0.850750000000     0.799590000000     0.716920000000    -0.360117   
O264     O      0.716450000000     0.850290000000     0.809320000000    -0.366798   
O265     O      0.796870000000     0.665130000000     0.809320000000    -0.366871   
O266     O      0.849030000000     0.797860000000     0.809370000000    -0.367095   
O267     O      0.664290000000     0.717570000000     0.809380000000    -0.366995   
O268     O      0.716440000000     0.665130000000     0.809320000000    -0.36691    
O269     O      0.796870000000     0.850290000000     0.809320000000    -0.366797   
O270     O      0.664290000000     0.797860000000     0.809370000000    -0.36709    
O271     O      0.849030000000     0.717560000000     0.809370000000    -0.367036   
O272     O      0.756660000000     0.757710000000     0.743780000000    -0.59039    


