data_structure

_audit_creation_method RASPA-1.0
_audit_creation_date 2023-5-19
_audit_author_name 'Poobodin Mano'

_cell_length_a    29.9145
_cell_length_b    29.8275
_cell_length_c    29.522
_cell_angle_alpha 90
_cell_angle_beta  90
_cell_angle_gamma 90
_cell_volume      26341.7

_symmetry_cell_setting          triclinic
_symmetry_space_group_name_Hall 'P 1'
_symmetry_space_group_name_H-M  'P 1'
_symmetry_Int_Tables_number     1

_symmetry_equiv_pos_as_xyz 'x,y,z'

loop_
_atom_site_label
_atom_site_type_symbol
_atom_site_fract_x
_atom_site_fract_y
_atom_site_fract_z
_atom_site_charge
C1       C      0.443290000000     0.453280000000     0.458240000000     0.386067   
C2       C      0.088420000000     0.091660000000     0.456870000000     0.394342   
C3       C      0.437670000000     0.107100000000     0.476330000000     0.388429   
C4       C      0.096030000000     0.434050000000     0.471250000000     0.390571   
C5       C      0.093740000000     0.440850000000     0.088650000000     0.396469   
C6       C      0.446690000000     0.097020000000     0.097900000000     0.397421   
C7       C      0.444610000000     0.450220000000     0.096560000000     0.394694   
C8       C      0.113240000000     0.103390000000     0.070810000000     0.393079   
C9       C      0.347260000000     0.354680000000     0.222410000000     0.397326   
C10      C      0.192820000000     0.189360000000     0.210710000000     0.387998   
C11      C      0.343110000000     0.195480000000     0.210510000000     0.398979   
C12      C      0.195980000000     0.344700000000     0.207630000000     0.396291   
C13      C      0.184710000000     0.345810000000     0.334830000000     0.391156   
C14      C      0.347400000000     0.193630000000     0.338580000000     0.388024   
C15      C      0.345150000000     0.347570000000     0.341020000000     0.388248   
C16      C      0.186980000000     0.189550000000     0.331750000000     0.396945   
C17      C      0.182300000000     0.118630000000     0.167000000000    -0.0147286  
C18      C      0.134940000000     0.187160000000     0.150470000000    -0.019957   
C19      C      0.183430000000     0.108440000000     0.115710000000    -0.0135522  
C20      C      0.142070000000     0.178210000000     0.099900000000     0.0134987  
C21      C      0.109360000000     0.201800000000     0.071140000000     0.0724938  
C22      C      0.093750000000     0.158240000000     0.408840000000    -0.0137065  
C23      C      0.142690000000     0.089960000000     0.393670000000    -0.0169459  
C24      C      0.112720000000     0.173890000000     0.363550000000    -0.0108484  
C25      C      0.179580000000     0.123370000000     0.381190000000     0.0109862  
C26      C      0.204910000000     0.136330000000     0.421920000000     0.0640564  
C27      C      0.192450000000     0.408920000000     0.154100000000    -0.0125639  
C28      C      0.143620000000     0.342010000000     0.142900000000    -0.0173824  
C29      C      0.151950000000     0.439620000000     0.147820000000    -0.0134216  
C30      C      0.102360000000     0.371920000000     0.138080000000     0.0106497  
C31      C      0.069750000000     0.347910000000     0.109320000000     0.0687899  
C32      C      0.347680000000     0.133470000000     0.154450000000    -0.0121971  
C33      C      0.405530000000     0.194180000000     0.155580000000    -0.0177925  
C34      C      0.384860000000     0.098200000000     0.153650000000    -0.0131776  
C35      C      0.442340000000     0.158700000000     0.157450000000     0.0108838  
C36      C      0.484080000000     0.178430000000     0.140190000000     0.0683606  
C37      C      0.378510000000     0.448640000000     0.405190000000    -0.0121681  
C38      C      0.444910000000     0.399610000000     0.394140000000    -0.0185388  
C39      C      0.347490000000     0.408060000000     0.398450000000    -0.0150103  
C40      C      0.414920000000     0.358150000000     0.389070000000     0.00973349 
C41      C      0.438980000000     0.325860000000     0.359950000000     0.0692853  
C42      C      0.359470000000     0.124950000000     0.384580000000    -0.0125342  
C43      C      0.415940000000     0.187440000000     0.385570000000    -0.0207773  
C44      C      0.366110000000     0.119020000000     0.435710000000    -0.0153966  
C45      C      0.421000000000     0.181590000000     0.437030000000     0.00972168 
C46      C      0.465020000000     0.198790000000     0.451380000000     0.0691726  
C47      C      0.170640000000     0.415550000000     0.378130000000    -0.0129829  
C48      C      0.114930000000     0.352560000000     0.380210000000    -0.0188729  
C49      C      0.166300000000     0.420920000000     0.429340000000    -0.0141312  
C50      C      0.110310000000     0.359130000000     0.431730000000     0.00866208 
C51      C      0.066100000000     0.342930000000     0.446690000000     0.0721896  
C52      C      0.445400000000     0.392170000000     0.156450000000    -0.0122767  
C53      C      0.391870000000     0.455810000000     0.160810000000    -0.0172932  
C54      C      0.408290000000     0.359030000000     0.167330000000    -0.0132496  
C55      C      0.353700000000     0.424010000000     0.174130000000     0.00996265 
C56      C      0.324470000000     0.448730000000     0.205900000000     0.0631694  
C57      C      0.443290000000     0.453280000000     0.958240000000     0.386018   
C58      C      0.088420000000     0.091660000000     0.956870000000     0.394291   
C59      C      0.437670000000     0.107100000000     0.976330000000     0.38838    
C60      C      0.096030000000     0.434050000000     0.971250000000     0.390522   
C61      C      0.093740000000     0.440850000000     0.588650000000     0.396529   
C62      C      0.446690000000     0.097020000000     0.597900000000     0.397476   
C63      C      0.444610000000     0.450220000000     0.596560000000     0.394744   
C64      C      0.113240000000     0.103390000000     0.570810000000     0.393137   
C65      C      0.347260000000     0.354680000000     0.722410000000     0.397279   
C66      C      0.192820000000     0.189360000000     0.710710000000     0.388001   
C67      C      0.343110000000     0.195480000000     0.710510000000     0.398984   
C68      C      0.195980000000     0.344700000000     0.707630000000     0.396295   
C69      C      0.184710000000     0.345810000000     0.834830000000     0.391161   
C70      C      0.347400000000     0.193630000000     0.838580000000     0.388028   
C71      C      0.345150000000     0.347570000000     0.841020000000     0.388251   
C72      C      0.186980000000     0.189550000000     0.831750000000     0.396949   
C73      C      0.182300000000     0.118630000000     0.667000000000    -0.0147253  
C74      C      0.134940000000     0.187160000000     0.650470000000    -0.019953   
C75      C      0.183430000000     0.108440000000     0.615710000000    -0.0135592  
C76      C      0.142070000000     0.178210000000     0.599900000000     0.0134891  
C77      C      0.109360000000     0.201800000000     0.571140000000     0.0725852  
C78      C      0.093750000000     0.158240000000     0.908840000000    -0.0137212  
C79      C      0.142690000000     0.089960000000     0.893670000000    -0.0169419  
C80      C      0.112720000000     0.173890000000     0.863550000000    -0.0108571  
C81      C      0.179580000000     0.123370000000     0.881190000000     0.0109839  
C82      C      0.204910000000     0.136330000000     0.921920000000     0.0641095  
C83      C      0.192450000000     0.408920000000     0.654100000000    -0.012589   
C84      C      0.143620000000     0.342010000000     0.642900000000    -0.0173622  
C85      C      0.151950000000     0.439620000000     0.647810000000    -0.0133689  
C86      C      0.102360000000     0.371920000000     0.638080000000     0.0106523  
C87      C      0.069750000000     0.347910000000     0.609320000000     0.0688315  
C88      C      0.347680000000     0.133470000000     0.654450000000    -0.0121761  
C89      C      0.405530000000     0.194180000000     0.655580000000    -0.0178018  
C90      C      0.384860000000     0.098200000000     0.653650000000    -0.0131765  
C91      C      0.442340000000     0.158700000000     0.657450000000     0.0108946  
C92      C      0.484080000000     0.178430000000     0.640190000000     0.0683805  
C93      C      0.378510000000     0.448640000000     0.905190000000    -0.0121619  
C94      C      0.444910000000     0.399610000000     0.894140000000    -0.0185289  
C95      C      0.347490000000     0.408060000000     0.898450000000    -0.0150174  
C96      C      0.414920000000     0.358150000000     0.889070000000     0.00972079 
C97      C      0.438980000000     0.325860000000     0.859940000000     0.0693164  
C98      C      0.359470000000     0.124950000000     0.884580000000    -0.0125284  
C99      C      0.415940000000     0.187440000000     0.885570000000    -0.0207731  
C100     C      0.366110000000     0.119020000000     0.935710000000    -0.0154083  
C101     C      0.421000000000     0.181590000000     0.937030000000     0.00970812 
C102     C      0.465020000000     0.198790000000     0.951370000000     0.069236   
C103     C      0.170640000000     0.415550000000     0.878130000000    -0.0129769  
C104     C      0.114930000000     0.352560000000     0.880210000000    -0.018867   
C105     C      0.166300000000     0.420920000000     0.929340000000    -0.0141429  
C106     C      0.110310000000     0.359130000000     0.931730000000     0.00864729 
C107     C      0.066100000000     0.342930000000     0.946690000000     0.0722651  
C108     C      0.445400000000     0.392170000000     0.656450000000    -0.0122865  
C109     C      0.391870000000     0.455810000000     0.660820000000    -0.0173232  
C110     C      0.408290000000     0.359030000000     0.667340000000    -0.0132124  
C111     C      0.353700000000     0.424010000000     0.674130000000     0.00997397 
C112     C      0.324470000000     0.448730000000     0.705900000000     0.0631693  
C113     C      0.443290000000     0.953280000000     0.458240000000     0.386062   
C114     C      0.088420000000     0.591660000000     0.456870000000     0.394348   
C115     C      0.437670000000     0.607100000000     0.476330000000     0.388478   
C116     C      0.096030000000     0.934050000000     0.471250000000     0.390515   
C117     C      0.093740000000     0.940840000000     0.088650000000     0.396562   
C118     C      0.446690000000     0.597020000000     0.097900000000     0.397463   
C119     C      0.444610000000     0.950220000000     0.096560000000     0.394684   
C120     C      0.113240000000     0.603390000000     0.070810000000     0.393083   
C121     C      0.347260000000     0.854680000000     0.222410000000     0.397326   
C122     C      0.192820000000     0.689360000000     0.210710000000     0.388083   
C123     C      0.343110000000     0.695480000000     0.210510000000     0.39898    
C124     C      0.195980000000     0.844690000000     0.207630000000     0.396325   
C125     C      0.184710000000     0.845800000000     0.334830000000     0.391228   
C126     C      0.347400000000     0.693630000000     0.338580000000     0.388025   
C127     C      0.345150000000     0.847570000000     0.341020000000     0.388286   
C128     C      0.186980000000     0.689550000000     0.331750000000     0.396946   
C129     C      0.182300000000     0.618620000000     0.167000000000    -0.0148146  
C130     C      0.134940000000     0.687160000000     0.150470000000    -0.0199574  
C131     C      0.183430000000     0.608440000000     0.115710000000    -0.0135174  
C132     C      0.142070000000     0.678210000000     0.099900000000     0.0135006  
C133     C      0.109360000000     0.701800000000     0.071140000000     0.072492   
C134     C      0.093750000000     0.658240000000     0.408840000000    -0.0137054  
C135     C      0.142690000000     0.589960000000     0.393670000000    -0.0169511  
C136     C      0.112720000000     0.673890000000     0.363550000000    -0.0108499  
C137     C      0.179580000000     0.623370000000     0.381190000000     0.0109878  
C138     C      0.204910000000     0.636330000000     0.421920000000     0.0640653  
C139     C      0.192450000000     0.908920000000     0.154100000000    -0.0125645  
C140     C      0.143620000000     0.842010000000     0.142900000000    -0.017425   
C141     C      0.151950000000     0.939620000000     0.147820000000    -0.01341    
C142     C      0.102360000000     0.871920000000     0.138080000000     0.0106642  
C143     C      0.069750000000     0.847910000000     0.109320000000     0.0687822  
C144     C      0.347680000000     0.633470000000     0.154450000000    -0.0122054  
C145     C      0.405530000000     0.694180000000     0.155580000000    -0.0177817  
C146     C      0.384860000000     0.598200000000     0.153650000000    -0.0131527  
C147     C      0.442340000000     0.658700000000     0.157450000000     0.0108488  
C148     C      0.484080000000     0.678420000000     0.140190000000     0.0683676  
C149     C      0.378510000000     0.948640000000     0.405190000000    -0.0121808  
C150     C      0.444910000000     0.899610000000     0.394140000000    -0.018547   
C151     C      0.347490000000     0.908060000000     0.398450000000    -0.0150439  
C152     C      0.414920000000     0.858150000000     0.389070000000     0.00974901 
C153     C      0.438980000000     0.825860000000     0.359950000000     0.0693037  
C154     C      0.359470000000     0.624950000000     0.384580000000    -0.0125453  
C155     C      0.415940000000     0.687440000000     0.385570000000    -0.0207706  
C156     C      0.366110000000     0.619020000000     0.435710000000    -0.015366   
C157     C      0.421000000000     0.681590000000     0.437030000000     0.00970131 
C158     C      0.465020000000     0.698800000000     0.451380000000     0.0691716  
C159     C      0.170640000000     0.915550000000     0.378130000000    -0.0130028  
C160     C      0.114930000000     0.852560000000     0.380210000000    -0.0188351  
C161     C      0.166300000000     0.920930000000     0.429340000000    -0.0141602  
C162     C      0.110310000000     0.859120000000     0.431730000000     0.00861968 
C163     C      0.066100000000     0.842930000000     0.446690000000     0.0722062  
C164     C      0.445400000000     0.892160000000     0.156450000000    -0.012335   
C165     C      0.391870000000     0.955810000000     0.160810000000    -0.017302   
C166     C      0.408290000000     0.859030000000     0.167330000000    -0.0132228  
C167     C      0.353700000000     0.924010000000     0.174130000000     0.00996652 
C168     C      0.324470000000     0.948730000000     0.205900000000     0.0631933  
C169     C      0.443290000000     0.953280000000     0.958240000000     0.386013   
C170     C      0.088420000000     0.591660000000     0.956870000000     0.394298   
C171     C      0.437670000000     0.607100000000     0.976330000000     0.38843    
C172     C      0.096030000000     0.934050000000     0.971250000000     0.390466   
C173     C      0.093740000000     0.940840000000     0.588650000000     0.396622   
C174     C      0.446690000000     0.597020000000     0.597900000000     0.397517   
C175     C      0.444610000000     0.950220000000     0.596560000000     0.394734   
C176     C      0.113240000000     0.603390000000     0.570810000000     0.393142   
C177     C      0.347260000000     0.854680000000     0.722410000000     0.39728    
C178     C      0.192820000000     0.689360000000     0.710710000000     0.388086   
C179     C      0.343110000000     0.695480000000     0.710510000000     0.398985   
C180     C      0.195980000000     0.844690000000     0.707630000000     0.396329   
C181     C      0.184710000000     0.845800000000     0.834830000000     0.391233   
C182     C      0.347400000000     0.693630000000     0.838580000000     0.38803    
C183     C      0.345150000000     0.847570000000     0.841020000000     0.38829    
C184     C      0.186980000000     0.689550000000     0.831750000000     0.39695    
C185     C      0.182300000000     0.618620000000     0.667000000000    -0.0148112  
C186     C      0.134940000000     0.687160000000     0.650470000000    -0.0199534  
C187     C      0.183430000000     0.608440000000     0.615710000000    -0.0135244  
C188     C      0.142070000000     0.678210000000     0.599900000000     0.0134911  
C189     C      0.109360000000     0.701800000000     0.571140000000     0.0725835  
C190     C      0.093750000000     0.658240000000     0.908840000000    -0.01372    
C191     C      0.142690000000     0.589960000000     0.893670000000    -0.0169471  
C192     C      0.112720000000     0.673890000000     0.863550000000    -0.0108586  
C193     C      0.179580000000     0.623370000000     0.881190000000     0.0109856  
C194     C      0.204910000000     0.636330000000     0.921920000000     0.0641184  
C195     C      0.192450000000     0.908920000000     0.654100000000    -0.0125896  
C196     C      0.143620000000     0.842010000000     0.642900000000    -0.0174047  
C197     C      0.151950000000     0.939620000000     0.647810000000    -0.0133574  
C198     C      0.102360000000     0.871920000000     0.638080000000     0.0106668  
C199     C      0.069750000000     0.847910000000     0.609320000000     0.0688238  
C200     C      0.347680000000     0.633470000000     0.654450000000    -0.0121844  
C201     C      0.405530000000     0.694180000000     0.655580000000    -0.017791   
C202     C      0.384860000000     0.598200000000     0.653650000000    -0.0131516  
C203     C      0.442340000000     0.658700000000     0.657450000000     0.0108596  
C204     C      0.484080000000     0.678420000000     0.640190000000     0.0683874  
C205     C      0.378510000000     0.948640000000     0.905190000000    -0.0121747  
C206     C      0.444910000000     0.899610000000     0.894140000000    -0.018537   
C207     C      0.347490000000     0.908060000000     0.898450000000    -0.015051   
C208     C      0.414920000000     0.858150000000     0.889070000000     0.00973631 
C209     C      0.438980000000     0.825860000000     0.859940000000     0.0693348  
C210     C      0.359470000000     0.624950000000     0.884580000000    -0.0125395  
C211     C      0.415940000000     0.687440000000     0.885570000000    -0.0207664  
C212     C      0.366110000000     0.619020000000     0.935710000000    -0.0153777  
C213     C      0.421000000000     0.681590000000     0.937030000000     0.00968776 
C214     C      0.465020000000     0.698800000000     0.951370000000     0.0692349  
C215     C      0.170640000000     0.915550000000     0.878130000000    -0.0129968  
C216     C      0.114930000000     0.852560000000     0.880210000000    -0.0188292  
C217     C      0.166300000000     0.920930000000     0.929340000000    -0.0141719  
C218     C      0.110310000000     0.859120000000     0.931730000000     0.00860488 
C219     C      0.066100000000     0.842930000000     0.946690000000     0.0722816  
C220     C      0.445400000000     0.892160000000     0.656450000000    -0.0123447  
C221     C      0.391870000000     0.955810000000     0.660820000000    -0.0173321  
C222     C      0.408290000000     0.859030000000     0.667340000000    -0.0131856  
C223     C      0.353700000000     0.924010000000     0.674130000000     0.00997784 
C224     C      0.324470000000     0.948730000000     0.705900000000     0.0631932  
C225     C      0.943290000000     0.453280000000     0.458240000000     0.386028   
C226     C      0.588420000000     0.091660000000     0.456870000000     0.394366   
C227     C      0.937670000000     0.107100000000     0.476330000000     0.388426   
C228     C      0.596030000000     0.434050000000     0.471250000000     0.390598   
C229     C      0.593740000000     0.440850000000     0.088650000000     0.396495   
C230     C      0.946690000000     0.097020000000     0.097900000000     0.397453   
C231     C      0.944600000000     0.450220000000     0.096560000000     0.394663   
C232     C      0.613240000000     0.103390000000     0.070810000000     0.393108   
C233     C      0.847260000000     0.354680000000     0.222410000000     0.397332   
C234     C      0.692820000000     0.189360000000     0.210710000000     0.38801    
C235     C      0.843110000000     0.195480000000     0.210510000000     0.399071   
C236     C      0.695980000000     0.344700000000     0.207630000000     0.396427   
C237     C      0.684710000000     0.345810000000     0.334830000000     0.391171   
C238     C      0.847400000000     0.193630000000     0.338580000000     0.388029   
C239     C      0.845150000000     0.347570000000     0.341020000000     0.388162   
C240     C      0.686980000000     0.189550000000     0.331750000000     0.396961   
C241     C      0.682300000000     0.118630000000     0.167000000000    -0.0147301  
C242     C      0.634940000000     0.187160000000     0.150470000000    -0.0199593  
C243     C      0.683430000000     0.108440000000     0.115710000000    -0.0135492  
C244     C      0.642070000000     0.178210000000     0.099900000000     0.0135013  
C245     C      0.609360000000     0.201800000000     0.071140000000     0.0724962  
C246     C      0.593750000000     0.158240000000     0.408840000000    -0.0137065  
C247     C      0.642690000000     0.089960000000     0.393670000000    -0.0169458  
C248     C      0.612720000000     0.173890000000     0.363550000000    -0.0108482  
C249     C      0.679580000000     0.123370000000     0.381190000000     0.0109868  
C250     C      0.704910000000     0.136330000000     0.421920000000     0.0640532  
C251     C      0.692450000000     0.408920000000     0.154100000000    -0.0125579  
C252     C      0.643620000000     0.342010000000     0.142900000000    -0.0173961  
C253     C      0.651950000000     0.439620000000     0.147820000000    -0.0134222  
C254     C      0.602370000000     0.371920000000     0.138080000000     0.0106858  
C255     C      0.569750000000     0.347910000000     0.109320000000     0.0687995  
C256     C      0.847680000000     0.133470000000     0.154450000000    -0.0121748  
C257     C      0.905520000000     0.194180000000     0.155580000000    -0.0177335  
C258     C      0.884860000000     0.098200000000     0.153650000000    -0.0132335  
C259     C      0.942340000000     0.158700000000     0.157450000000     0.0108453  
C260     C      0.984080000000     0.178430000000     0.140190000000     0.0684744  
C261     C      0.878510000000     0.448640000000     0.405190000000    -0.0121316  
C262     C      0.944910000000     0.399610000000     0.394140000000    -0.0185769  
C263     C      0.847490000000     0.408060000000     0.398450000000    -0.015024   
C264     C      0.914920000000     0.358150000000     0.389070000000     0.00974331 
C265     C      0.938980000000     0.325860000000     0.359950000000     0.0693081  
C266     C      0.859470000000     0.124950000000     0.384580000000    -0.0125346  
C267     C      0.915940000000     0.187440000000     0.385570000000    -0.0207698  
C268     C      0.866110000000     0.119020000000     0.435710000000    -0.0153955  
C269     C      0.921000000000     0.181590000000     0.437030000000     0.00969422 
C270     C      0.965020000000     0.198790000000     0.451380000000     0.0692742  
C271     C      0.670640000000     0.415550000000     0.378130000000    -0.0129842  
C272     C      0.614930000000     0.352560000000     0.380210000000    -0.018875   
C273     C      0.666300000000     0.420920000000     0.429340000000    -0.0141282  
C274     C      0.610310000000     0.359130000000     0.431730000000     0.00866521 
C275     C      0.566100000000     0.342930000000     0.446690000000     0.0722072  
C276     C      0.945400000000     0.392170000000     0.156450000000    -0.0122508  
C277     C      0.891870000000     0.455810000000     0.160810000000    -0.0173157  
C278     C      0.908290000000     0.359030000000     0.167330000000    -0.0132479  
C279     C      0.853710000000     0.424010000000     0.174130000000     0.0100069  
C280     C      0.824470000000     0.448730000000     0.205900000000     0.0631538  
C281     C      0.943290000000     0.453280000000     0.958240000000     0.385979   
C282     C      0.588420000000     0.091660000000     0.956870000000     0.394316   
C283     C      0.937670000000     0.107100000000     0.976330000000     0.388377   
C284     C      0.596030000000     0.434050000000     0.971250000000     0.390549   
C285     C      0.593740000000     0.440850000000     0.588650000000     0.396555   
C286     C      0.946690000000     0.097020000000     0.597900000000     0.397508   
C287     C      0.944600000000     0.450220000000     0.596560000000     0.394713   
C288     C      0.613240000000     0.103390000000     0.570810000000     0.393166   
C289     C      0.847260000000     0.354680000000     0.722410000000     0.397286   
C290     C      0.692820000000     0.189360000000     0.710710000000     0.388013   
C291     C      0.843110000000     0.195480000000     0.710510000000     0.399075   
C292     C      0.695980000000     0.344700000000     0.707630000000     0.396431   
C293     C      0.684710000000     0.345810000000     0.834830000000     0.391176   
C294     C      0.847400000000     0.193630000000     0.838580000000     0.388033   
C295     C      0.845150000000     0.347570000000     0.841020000000     0.388165   
C296     C      0.686980000000     0.189550000000     0.831750000000     0.396965   
C297     C      0.682300000000     0.118630000000     0.667000000000    -0.0147268  
C298     C      0.634940000000     0.187160000000     0.650470000000    -0.0199553  
C299     C      0.683430000000     0.108440000000     0.615710000000    -0.0135562  
C300     C      0.642070000000     0.178210000000     0.599900000000     0.0134917  
C301     C      0.609360000000     0.201800000000     0.571140000000     0.0725876  
C302     C      0.593750000000     0.158240000000     0.908840000000    -0.0137212  
C303     C      0.642690000000     0.089960000000     0.893670000000    -0.0169418  
C304     C      0.612720000000     0.173890000000     0.863550000000    -0.010857   
C305     C      0.679580000000     0.123370000000     0.881190000000     0.0109845  
C306     C      0.704910000000     0.136330000000     0.921920000000     0.0641063  
C307     C      0.692450000000     0.408920000000     0.654100000000    -0.0125829  
C308     C      0.643620000000     0.342010000000     0.642900000000    -0.0173759  
C309     C      0.651950000000     0.439620000000     0.647810000000    -0.0133696  
C310     C      0.602370000000     0.371920000000     0.638080000000     0.0106884  
C311     C      0.569750000000     0.347910000000     0.609320000000     0.0688411  
C312     C      0.847680000000     0.133470000000     0.654450000000    -0.0121538  
C313     C      0.905520000000     0.194180000000     0.655580000000    -0.0177427  
C314     C      0.884860000000     0.098200000000     0.653650000000    -0.0132324  
C315     C      0.942340000000     0.158700000000     0.657450000000     0.0108561  
C316     C      0.984080000000     0.178430000000     0.640190000000     0.0684942  
C317     C      0.878510000000     0.448640000000     0.905190000000    -0.0121254  
C318     C      0.944910000000     0.399610000000     0.894140000000    -0.018567   
C319     C      0.847490000000     0.408060000000     0.898450000000    -0.015031   
C320     C      0.914920000000     0.358150000000     0.889070000000     0.00973061 
C321     C      0.938980000000     0.325860000000     0.859940000000     0.0693392  
C322     C      0.859470000000     0.124950000000     0.884580000000    -0.0125288  
C323     C      0.915940000000     0.187440000000     0.885570000000    -0.0207656  
C324     C      0.866110000000     0.119020000000     0.935710000000    -0.0154073  
C325     C      0.921000000000     0.181590000000     0.937030000000     0.00968066 
C326     C      0.965020000000     0.198790000000     0.951370000000     0.0693375  
C327     C      0.670640000000     0.415550000000     0.878130000000    -0.0129782  
C328     C      0.614930000000     0.352560000000     0.880210000000    -0.0188691  
C329     C      0.666300000000     0.420920000000     0.929340000000    -0.0141399  
C330     C      0.610310000000     0.359130000000     0.931730000000     0.00865042 
C331     C      0.566100000000     0.342930000000     0.946690000000     0.0722827  
C332     C      0.945400000000     0.392170000000     0.656450000000    -0.0122606  
C333     C      0.891870000000     0.455810000000     0.660820000000    -0.0173458  
C334     C      0.908290000000     0.359030000000     0.667340000000    -0.0132107  
C335     C      0.853710000000     0.424010000000     0.674130000000     0.0100183  
C336     C      0.824470000000     0.448730000000     0.705900000000     0.0631537  
C337     C      0.943290000000     0.953280000000     0.458240000000     0.386023   
C338     C      0.588420000000     0.591660000000     0.456870000000     0.394373   
C339     C      0.937670000000     0.607100000000     0.476330000000     0.388475   
C340     C      0.596030000000     0.934050000000     0.471250000000     0.390542   
C341     C      0.593740000000     0.940840000000     0.088650000000     0.396588   
C342     C      0.946690000000     0.597020000000     0.097900000000     0.397495   
C343     C      0.944600000000     0.950220000000     0.096560000000     0.394654   
C344     C      0.613240000000     0.603390000000     0.070810000000     0.393112   
C345     C      0.847260000000     0.854680000000     0.222410000000     0.397332   
C346     C      0.692820000000     0.689360000000     0.210710000000     0.388095   
C347     C      0.843110000000     0.695480000000     0.210510000000     0.399072   
C348     C      0.695980000000     0.844690000000     0.207630000000     0.396461   
C349     C      0.684710000000     0.845800000000     0.334830000000     0.391243   
C350     C      0.847400000000     0.693630000000     0.338580000000     0.38803    
C351     C      0.845150000000     0.847570000000     0.341020000000     0.3882     
C352     C      0.686980000000     0.689550000000     0.331750000000     0.396962   
C353     C      0.682300000000     0.618620000000     0.167000000000    -0.0148161  
C354     C      0.634940000000     0.687160000000     0.150470000000    -0.0199597  
C355     C      0.683430000000     0.608440000000     0.115710000000    -0.0135145  
C356     C      0.642070000000     0.678210000000     0.099900000000     0.0135032  
C357     C      0.609360000000     0.701800000000     0.071140000000     0.0724944  
C358     C      0.593750000000     0.658240000000     0.408840000000    -0.0137054  
C359     C      0.642690000000     0.589960000000     0.393670000000    -0.0169509  
C360     C      0.612720000000     0.673890000000     0.363550000000    -0.0108498  
C361     C      0.679580000000     0.623370000000     0.381190000000     0.0109884  
C362     C      0.704910000000     0.636330000000     0.421920000000     0.0640621  
C363     C      0.692450000000     0.908920000000     0.154100000000    -0.0125585  
C364     C      0.643620000000     0.842010000000     0.142900000000    -0.0174386  
C365     C      0.651950000000     0.939620000000     0.147820000000    -0.0134107  
C366     C      0.602370000000     0.871920000000     0.138080000000     0.0107004  
C367     C      0.569750000000     0.847910000000     0.109320000000     0.0687918  
C368     C      0.847680000000     0.633470000000     0.154450000000    -0.0121831  
C369     C      0.905520000000     0.694180000000     0.155580000000    -0.0177227  
C370     C      0.884860000000     0.598200000000     0.153650000000    -0.0132086  
C371     C      0.942340000000     0.658700000000     0.157450000000     0.0108103  
C372     C      0.984080000000     0.678420000000     0.140190000000     0.0684814  
C373     C      0.878510000000     0.948640000000     0.405190000000    -0.0121443  
C374     C      0.944910000000     0.899610000000     0.394140000000    -0.0185851  
C375     C      0.847490000000     0.908060000000     0.398450000000    -0.0150576  
C376     C      0.914920000000     0.858150000000     0.389070000000     0.00975883 
C377     C      0.938980000000     0.825860000000     0.359950000000     0.0693264  
C378     C      0.859470000000     0.624950000000     0.384580000000    -0.0125458  
C379     C      0.915940000000     0.687440000000     0.385570000000    -0.020763   
C380     C      0.866110000000     0.619020000000     0.435710000000    -0.0153649  
C381     C      0.921000000000     0.681590000000     0.437030000000     0.00967386 
C382     C      0.965020000000     0.698800000000     0.451380000000     0.0692732  
C383     C      0.670640000000     0.915550000000     0.378130000000    -0.0130041  
C384     C      0.614930000000     0.852560000000     0.380210000000    -0.0188371  
C385     C      0.666300000000     0.920930000000     0.429340000000    -0.0141572  
C386     C      0.610310000000     0.859120000000     0.431730000000     0.00862282 
C387     C      0.566100000000     0.842930000000     0.446690000000     0.0722237  
C388     C      0.945400000000     0.892160000000     0.156450000000    -0.012309   
C389     C      0.891870000000     0.955810000000     0.160810000000    -0.0173246  
C390     C      0.908290000000     0.859030000000     0.167330000000    -0.0132211  
C391     C      0.853710000000     0.924010000000     0.174130000000     0.0100108  
C392     C      0.824470000000     0.948730000000     0.205900000000     0.0631776  
C393     C      0.943290000000     0.953280000000     0.958240000000     0.385974   
C394     C      0.588420000000     0.591660000000     0.956870000000     0.394322   
C395     C      0.937670000000     0.607100000000     0.976330000000     0.388427   
C396     C      0.596030000000     0.934050000000     0.971250000000     0.390492   
C397     C      0.593740000000     0.940840000000     0.588650000000     0.396648   
C398     C      0.946690000000     0.597020000000     0.597900000000     0.397549   
C399     C      0.944600000000     0.950220000000     0.596560000000     0.394704   
C400     C      0.613240000000     0.603390000000     0.570810000000     0.393171   
C401     C      0.847260000000     0.854680000000     0.722410000000     0.397286   
C402     C      0.692820000000     0.689360000000     0.710710000000     0.388098   
C403     C      0.843110000000     0.695480000000     0.710510000000     0.399077   
C404     C      0.695980000000     0.844690000000     0.707630000000     0.396465   
C405     C      0.684710000000     0.845800000000     0.834830000000     0.391248   
C406     C      0.847400000000     0.693630000000     0.838580000000     0.388035   
C407     C      0.845150000000     0.847570000000     0.841020000000     0.388204   
C408     C      0.686980000000     0.689550000000     0.831750000000     0.396967   
C409     C      0.682300000000     0.618620000000     0.667000000000    -0.0148127  
C410     C      0.634940000000     0.687160000000     0.650470000000    -0.0199557  
C411     C      0.683430000000     0.608440000000     0.615710000000    -0.0135214  
C412     C      0.642070000000     0.678210000000     0.599900000000     0.0134937  
C413     C      0.609360000000     0.701800000000     0.571140000000     0.0725859  
C414     C      0.593750000000     0.658240000000     0.908840000000    -0.01372    
C415     C      0.642690000000     0.589960000000     0.893670000000    -0.016947   
C416     C      0.612720000000     0.673890000000     0.863550000000    -0.0108585  
C417     C      0.679580000000     0.623370000000     0.881190000000     0.0109861  
C418     C      0.704910000000     0.636330000000     0.921920000000     0.0641152  
C419     C      0.692450000000     0.908920000000     0.654100000000    -0.0125835  
C420     C      0.643620000000     0.842010000000     0.642900000000    -0.0174184  
C421     C      0.651950000000     0.939620000000     0.647810000000    -0.0133581  
C422     C      0.602370000000     0.871920000000     0.638080000000     0.010703   
C423     C      0.569750000000     0.847910000000     0.609320000000     0.0688334  
C424     C      0.847680000000     0.633470000000     0.654450000000    -0.0121622  
C425     C      0.905520000000     0.694180000000     0.655580000000    -0.017732   
C426     C      0.884860000000     0.598200000000     0.653650000000    -0.0132075  
C427     C      0.942340000000     0.658700000000     0.657450000000     0.0108211  
C428     C      0.984080000000     0.678420000000     0.640190000000     0.0685012  
C429     C      0.878510000000     0.948640000000     0.905190000000    -0.0121382  
C430     C      0.944910000000     0.899610000000     0.894140000000    -0.0185751  
C431     C      0.847490000000     0.908060000000     0.898450000000    -0.0150646  
C432     C      0.914920000000     0.858150000000     0.889070000000     0.00974613 
C433     C      0.938980000000     0.825860000000     0.859940000000     0.0693575  
C434     C      0.859470000000     0.624950000000     0.884580000000    -0.01254    
C435     C      0.915940000000     0.687440000000     0.885570000000    -0.0207589  
C436     C      0.866110000000     0.619020000000     0.935710000000    -0.0153767  
C437     C      0.921000000000     0.681590000000     0.937030000000     0.00966031 
C438     C      0.965020000000     0.698800000000     0.951370000000     0.0693365  
C439     C      0.670640000000     0.915550000000     0.878130000000    -0.0129981  
C440     C      0.614930000000     0.852560000000     0.880210000000    -0.0188312  
C441     C      0.666300000000     0.920930000000     0.929340000000    -0.014169   
C442     C      0.610310000000     0.859120000000     0.931730000000     0.00860801 
C443     C      0.566100000000     0.842930000000     0.946690000000     0.0722992  
C444     C      0.945400000000     0.892160000000     0.656450000000    -0.0123188  
C445     C      0.891870000000     0.955810000000     0.660820000000    -0.0173547  
C446     C      0.908290000000     0.859030000000     0.667340000000    -0.013184   
C447     C      0.853710000000     0.924010000000     0.674130000000     0.0100222  
C448     C      0.824470000000     0.948730000000     0.705900000000     0.0631776  
Co1      Co     0.016490000000     0.455580000000     0.527210000000     0.844332   
Co2      Co     0.521390000000     0.088540000000     0.030960000000     0.847601   
Co3      Co     0.452920000000     0.524000000000     0.529290000000     0.839964   
Co4      Co     0.084490000000     0.518610000000     0.025680000000     0.838463   
Co5      Co     0.266730000000     0.335910000000     0.278540000000     0.839551   
Co6      Co     0.268500000000     0.203320000000     0.276090000000     0.836878   
Co7      Co     0.333990000000     0.271180000000     0.276340000000     0.855413   
Co8      Co     0.201390000000     0.268530000000     0.272060000000     0.852861   
Co9      Co     0.016490000000     0.455580000000     0.027210000000     0.843774   
Co10     Co     0.521390000000     0.088540000000     0.530960000000     0.848133   
Co11     Co     0.452920000000     0.524000000000     0.029290000000     0.839394   
Co12     Co     0.084490000000     0.518610000000     0.525680000000     0.839006   
Co13     Co     0.266730000000     0.335910000000     0.778540000000     0.83955    
Co14     Co     0.268500000000     0.203320000000     0.776090000000     0.836879   
Co15     Co     0.333990000000     0.271180000000     0.776340000000     0.855411   
Co16     Co     0.201390000000     0.268530000000     0.772060000000     0.852861   
Co17     Co     0.016490000000     0.955580000000     0.527210000000     0.844514   
Co18     Co     0.521390000000     0.588540000000     0.030960000000     0.847578   
Co19     Co     0.452920000000     0.024000000000     0.529290000000     0.839718   
Co20     Co     0.084490000000     0.018610000000     0.025680000000     0.838194   
Co21     Co     0.266730000000     0.835910000000     0.278540000000     0.839539   
Co22     Co     0.268500000000     0.703320000000     0.276090000000     0.836921   
Co23     Co     0.333990000000     0.771180000000     0.276340000000     0.85541    
Co24     Co     0.201390000000     0.768530000000     0.272060000000     0.85289    
Co25     Co     0.016490000000     0.955580000000     0.027210000000     0.843956   
Co26     Co     0.521390000000     0.588540000000     0.530960000000     0.84811    
Co27     Co     0.452920000000     0.024000000000     0.029290000000     0.839149   
Co28     Co     0.084490000000     0.018610000000     0.525680000000     0.838736   
Co29     Co     0.266730000000     0.835910000000     0.778540000000     0.839538   
Co30     Co     0.268500000000     0.703320000000     0.776090000000     0.836921   
Co31     Co     0.333990000000     0.771180000000     0.776340000000     0.855408   
Co32     Co     0.201390000000     0.768530000000     0.772060000000     0.85289    
Co33     Co     0.516490000000     0.455580000000     0.527210000000     0.844528   
Co34     Co     0.021390000000     0.088540000000     0.030960000000     0.847421   
Co35     Co     0.952920000000     0.524000000000     0.529290000000     0.84018    
Co36     Co     0.584500000000     0.518610000000     0.025680000000     0.838628   
Co37     Co     0.766730000000     0.335910000000     0.278540000000     0.839537   
Co38     Co     0.768500000000     0.203320000000     0.276090000000     0.836905   
Co39     Co     0.833990000000     0.271180000000     0.276340000000     0.855489   
Co40     Co     0.701380000000     0.268530000000     0.272060000000     0.852867   
Co41     Co     0.516490000000     0.455580000000     0.027210000000     0.843969   
Co42     Co     0.021390000000     0.088540000000     0.530960000000     0.847953   
Co43     Co     0.952920000000     0.524000000000     0.029290000000     0.839611   
Co44     Co     0.584500000000     0.518610000000     0.525680000000     0.839171   
Co45     Co     0.766730000000     0.335910000000     0.778540000000     0.839536   
Co46     Co     0.768500000000     0.203320000000     0.776090000000     0.836906   
Co47     Co     0.833990000000     0.271180000000     0.776340000000     0.855487   
Co48     Co     0.701380000000     0.268530000000     0.772060000000     0.852867   
Co49     Co     0.516490000000     0.955580000000     0.527210000000     0.84471    
Co50     Co     0.021390000000     0.588540000000     0.030960000000     0.847398   
Co51     Co     0.952920000000     0.024000000000     0.529290000000     0.839935   
Co52     Co     0.584500000000     0.018610000000     0.025680000000     0.838358   
Co53     Co     0.766730000000     0.835910000000     0.278540000000     0.839525   
Co54     Co     0.768500000000     0.703320000000     0.276090000000     0.836948   
Co55     Co     0.833990000000     0.771180000000     0.276340000000     0.855486   
Co56     Co     0.701380000000     0.768530000000     0.272060000000     0.852897   
Co57     Co     0.516490000000     0.955580000000     0.027210000000     0.844152   
Co58     Co     0.021390000000     0.588540000000     0.530960000000     0.84793    
Co59     Co     0.952920000000     0.024000000000     0.029290000000     0.839366   
Co60     Co     0.584500000000     0.018610000000     0.525680000000     0.838901   
Co61     Co     0.766730000000     0.835910000000     0.778540000000     0.839524   
Co62     Co     0.768500000000     0.703320000000     0.776090000000     0.836948   
Co63     Co     0.833990000000     0.771180000000     0.776340000000     0.855484   
Co64     Co     0.701380000000     0.768530000000     0.772060000000     0.852896   
H1       H      0.214760000000     0.122870000000     0.101580000000     0.045491   
H2       H      0.214660000000     0.108180000000     0.182180000000     0.051175   
H3       H      0.175080000000     0.193140000000     0.091140000000     0.0423942  
H4       H      0.132730000000     0.223940000000     0.156230000000     0.0578836  
H5       H      0.155810000000     0.097450000000     0.182490000000     0.0443366  
H6       H      0.102760000000     0.171840000000     0.161230000000     0.0591053  
H7       H      0.184960000000     0.071520000000     0.110880000000     0.0508875  
H8       H      0.094680000000     0.156450000000     0.335720000000     0.04463    
H9       H      0.056670000000     0.160600000000     0.407480000000     0.0549913  
H10      H      0.203250000000     0.106090000000     0.357960000000     0.0465488  
H11      H      0.127560000000     0.077030000000     0.361840000000     0.0423356  
H12      H      0.105210000000     0.181350000000     0.436050000000     0.0615878  
H13      H      0.157570000000     0.060610000000     0.411410000000     0.0532544  
H14      H      0.105720000000     0.210350000000     0.359980000000     0.0543353  
H15      H      0.138710000000     0.448130000000     0.181960000000     0.0439879  
H16      H      0.216590000000     0.425290000000     0.177470000000     0.0545033  
H17      H      0.087170000000     0.375700000000     0.172250000000     0.0436176  
H18      H      0.133610000000     0.308950000000     0.157080000000     0.0568602  
H19      H      0.209100000000     0.404700000000     0.120690000000     0.045383   
H20      H      0.157920000000     0.335740000000     0.108640000000     0.0486817  
H21      H      0.163580000000     0.471450000000     0.132190000000     0.051089   
H22      H      0.391570000000     0.087690000000     0.189160000000     0.0437422  
H23      H      0.318130000000     0.119500000000     0.172380000000     0.0514992  
H24      H      0.448140000000     0.150640000000     0.193780000000     0.0426075  
H25      H      0.416780000000     0.225160000000     0.173230000000     0.0574493  
H26      H      0.337590000000     0.140480000000     0.118890000000     0.0455284  
H27      H      0.399100000000     0.203060000000     0.119520000000     0.0512441  
H28      H      0.372490000000     0.068240000000     0.135200000000     0.051238   
H29      H      0.338170000000     0.395120000000     0.432490000000     0.0438251  
H30      H      0.362210000000     0.472770000000     0.428660000000     0.0493945  
H31      H      0.411420000000     0.342590000000     0.423110000000     0.0477585  
H32      H      0.477870000000     0.389610000000     0.408320000000     0.0615257  
H33      H      0.382780000000     0.465590000000     0.371910000000     0.0446261  
H34      H      0.451300000000     0.413930000000     0.359890000000     0.0464201  
H35      H      0.316220000000     0.420000000000     0.382100000000     0.0523335  
H36      H      0.340490000000     0.139630000000     0.453390000000     0.0491821  
H37      H      0.324190000000     0.116780000000     0.376100000000     0.0529009  
H38      H      0.395500000000     0.203530000000     0.453200000000     0.0438103  
H39      H      0.420840000000     0.223380000000     0.376950000000     0.063024   
H40      H      0.381170000000     0.100350000000     0.366790000000     0.0444414  
H41      H      0.442690000000     0.167970000000     0.368240000000     0.0496533  
H42      H      0.359290000000     0.083430000000     0.444370000000     0.0539315  
H43      H      0.192080000000     0.399550000000     0.445810000000     0.0443634  
H44      H      0.205140000000     0.425080000000     0.368000000000     0.0517638  
H45      H      0.135440000000     0.336740000000     0.447870000000     0.0443321  
H46      H      0.110220000000     0.316490000000     0.371840000000     0.0563932  
H47      H      0.147270000000     0.439510000000     0.361610000000     0.0439495  
H48      H      0.088030000000     0.371830000000     0.362880000000     0.0489154  
H49      H      0.173980000000     0.456320000000     0.438090000000     0.0518282  
H50      H      0.395220000000     0.345210000000     0.134940000000     0.0483211  
H51      H      0.470750000000     0.375110000000     0.135020000000     0.0592919  
H52      H      0.333820000000     0.416830000000     0.143150000000     0.0426212  
H53      H      0.377620000000     0.484740000000     0.141940000000     0.0526698  
H54      H      0.461890000000     0.402150000000     0.188680000000     0.0458425  
H55      H      0.407820000000     0.469370000000     0.192060000000     0.0456951  
H56      H      0.423510000000     0.330700000000     0.186340000000     0.0559097  
H57      H      0.214760000000     0.122870000000     0.601580000000     0.0455516  
H58      H      0.214660000000     0.108180000000     0.682180000000     0.0511784  
H59      H      0.175080000000     0.193140000000     0.591140000000     0.042456   
H60      H      0.132730000000     0.223940000000     0.656230000000     0.0578877  
H61      H      0.155810000000     0.097450000000     0.682490000000     0.0443282  
H62      H      0.102760000000     0.171840000000     0.661230000000     0.0590967  
H63      H      0.184960000000     0.071520000000     0.610880000000     0.0509208  
H64      H      0.094680000000     0.156450000000     0.835730000000     0.0446315  
H65      H      0.056670000000     0.160600000000     0.907490000000     0.0550078  
H66      H      0.203250000000     0.106090000000     0.857960000000     0.0465512  
H67      H      0.127560000000     0.077030000000     0.861840000000     0.0423318  
H68      H      0.105210000000     0.181350000000     0.936050000000     0.0616546  
H69      H      0.157570000000     0.060610000000     0.911410000000     0.0532762  
H70      H      0.105720000000     0.210350000000     0.859980000000     0.0543442  
H71      H      0.138710000000     0.448130000000     0.681960000000     0.0439625  
H72      H      0.216590000000     0.425290000000     0.677470000000     0.0545164  
H73      H      0.087170000000     0.375700000000     0.672250000000     0.0436085  
H74      H      0.133610000000     0.308950000000     0.657080000000     0.0568627  
H75      H      0.209100000000     0.404700000000     0.620690000000     0.0454426  
H76      H      0.157920000000     0.335740000000     0.608630000000     0.0487285  
H77      H      0.163580000000     0.471450000000     0.632190000000     0.0510939  
H78      H      0.391570000000     0.087690000000     0.689160000000     0.0437353  
H79      H      0.318130000000     0.119500000000     0.672380000000     0.0515046  
H80      H      0.448140000000     0.150640000000     0.693780000000     0.0425966  
H81      H      0.416780000000     0.225160000000     0.673230000000     0.0574609  
H82      H      0.337590000000     0.140480000000     0.618880000000     0.0455766  
H83      H      0.399100000000     0.203060000000     0.619520000000     0.0513057  
H84      H      0.372490000000     0.068240000000     0.635200000000     0.0512611  
H85      H      0.338170000000     0.395120000000     0.932490000000     0.0438874  
H86      H      0.362210000000     0.472770000000     0.928660000000     0.0494303  
H87      H      0.411420000000     0.342590000000     0.923110000000     0.0478078  
H88      H      0.477870000000     0.389610000000     0.908320000000     0.0615301  
H89      H      0.382780000000     0.465590000000     0.871910000000     0.0446228  
H90      H      0.451300000000     0.413930000000     0.859890000000     0.0464118  
H91      H      0.316220000000     0.420000000000     0.882100000000     0.0523482  
H92      H      0.340490000000     0.139630000000     0.953390000000     0.0492504  
H93      H      0.324190000000     0.116780000000     0.876100000000     0.0529067  
H94      H      0.395500000000     0.203530000000     0.953200000000     0.0438786  
H95      H      0.420840000000     0.223380000000     0.876950000000     0.0630277  
H96      H      0.381170000000     0.100350000000     0.866790000000     0.0444378  
H97      H      0.442690000000     0.167970000000     0.868240000000     0.0496476  
H98      H      0.359290000000     0.083430000000     0.944370000000     0.0539751  
H99      H      0.192080000000     0.399550000000     0.945810000000     0.0444319  
H100     H      0.205140000000     0.425080000000     0.868000000000     0.0517696  
H101     H      0.135440000000     0.336740000000     0.947870000000     0.0444047  
H102     H      0.110220000000     0.316490000000     0.871840000000     0.0563977  
H103     H      0.147270000000     0.439510000000     0.861610000000     0.0439454  
H104     H      0.088030000000     0.371830000000     0.862880000000     0.0489084  
H105     H      0.173980000000     0.456320000000     0.938090000000     0.0518718  
H106     H      0.395220000000     0.345210000000     0.634940000000     0.048356   
H107     H      0.470750000000     0.375110000000     0.635020000000     0.0593109  
H108     H      0.333820000000     0.416830000000     0.643150000000     0.0426597  
H109     H      0.377620000000     0.484740000000     0.641940000000     0.0526964  
H110     H      0.461890000000     0.402150000000     0.688680000000     0.0458349  
H111     H      0.407820000000     0.469370000000     0.692060000000     0.0456976  
H112     H      0.423510000000     0.330700000000     0.686340000000     0.0559023  
H113     H      0.214760000000     0.622870000000     0.101580000000     0.0454935  
H114     H      0.214660000000     0.608170000000     0.182180000000     0.0512063  
H115     H      0.175080000000     0.693140000000     0.091140000000     0.0423939  
H116     H      0.132730000000     0.723940000000     0.156230000000     0.057884   
H117     H      0.155810000000     0.597460000000     0.182490000000     0.0443911  
H118     H      0.102760000000     0.671840000000     0.161230000000     0.0591092  
H119     H      0.184960000000     0.571520000000     0.110880000000     0.0509142  
H120     H      0.094680000000     0.656450000000     0.335720000000     0.0446377  
H121     H      0.056670000000     0.660600000000     0.407480000000     0.0549943  
H122     H      0.203250000000     0.606090000000     0.357960000000     0.0465651  
H123     H      0.127560000000     0.577030000000     0.361840000000     0.0423633  
H124     H      0.105210000000     0.681350000000     0.436050000000     0.061586   
H125     H      0.157570000000     0.560610000000     0.411410000000     0.0532899  
H126     H      0.105720000000     0.710350000000     0.359980000000     0.0543363  
H127     H      0.138710000000     0.948130000000     0.181960000000     0.044011   
H128     H      0.216590000000     0.925290000000     0.177470000000     0.0545197  
H129     H      0.087170000000     0.875710000000     0.172250000000     0.0436232  
H130     H      0.133610000000     0.808960000000     0.157080000000     0.0568758  
H131     H      0.209100000000     0.904700000000     0.120690000000     0.0453903  
H132     H      0.157920000000     0.835740000000     0.108640000000     0.0486898  
H133     H      0.163580000000     0.971450000000     0.132190000000     0.0511213  
H134     H      0.391570000000     0.587690000000     0.189160000000     0.0437664  
H135     H      0.318130000000     0.619500000000     0.172380000000     0.0515149  
H136     H      0.448140000000     0.650640000000     0.193780000000     0.0426254  
H137     H      0.416780000000     0.725160000000     0.173230000000     0.0574477  
H138     H      0.337590000000     0.640480000000     0.118890000000     0.0455349  
H139     H      0.399100000000     0.703060000000     0.119520000000     0.0512397  
H140     H      0.372490000000     0.568240000000     0.135200000000     0.0512721  
H141     H      0.338170000000     0.895120000000     0.432490000000     0.0438379  
H142     H      0.362210000000     0.972760000000     0.428660000000     0.0494327  
H143     H      0.411420000000     0.842590000000     0.423110000000     0.0477555  
H144     H      0.477870000000     0.889610000000     0.408320000000     0.0615317  
H145     H      0.382780000000     0.965590000000     0.371910000000     0.0446593  
H146     H      0.451300000000     0.913930000000     0.359890000000     0.0464352  
H147     H      0.316220000000     0.919990000000     0.382100000000     0.0523599  
H148     H      0.340490000000     0.639630000000     0.453390000000     0.0491786  
H149     H      0.324190000000     0.616780000000     0.376100000000     0.052918   
H150     H      0.395500000000     0.703530000000     0.453200000000     0.043812   
H151     H      0.420840000000     0.723380000000     0.376950000000     0.0630208  
H152     H      0.381170000000     0.600350000000     0.366790000000     0.0444695  
H153     H      0.442690000000     0.667970000000     0.368240000000     0.0496588  
H154     H      0.359290000000     0.583430000000     0.444370000000     0.053955   
H155     H      0.192080000000     0.899550000000     0.445810000000     0.0443783  
H156     H      0.205140000000     0.925080000000     0.368000000000     0.0517879  
H157     H      0.135440000000     0.836740000000     0.447870000000     0.044346   
H158     H      0.110220000000     0.816490000000     0.371840000000     0.0563876  
H159     H      0.147270000000     0.939510000000     0.361610000000     0.0439793  
H160     H      0.088030000000     0.871830000000     0.362880000000     0.0489148  
H161     H      0.173980000000     0.956330000000     0.438090000000     0.0518646  
H162     H      0.395220000000     0.845210000000     0.134940000000     0.0483153  
H163     H      0.470750000000     0.875110000000     0.135020000000     0.0593119  
H164     H      0.333820000000     0.916830000000     0.143150000000     0.0426279  
H165     H      0.377620000000     0.984740000000     0.141940000000     0.052711   
H166     H      0.461890000000     0.902150000000     0.188680000000     0.0458692  
H167     H      0.407820000000     0.969370000000     0.192060000000     0.0457271  
H168     H      0.423510000000     0.830700000000     0.186340000000     0.0559047  
H169     H      0.214760000000     0.622870000000     0.601580000000     0.0455541  
H170     H      0.214660000000     0.608170000000     0.682180000000     0.0512097  
H171     H      0.175080000000     0.693140000000     0.591140000000     0.0424558  
H172     H      0.132730000000     0.723940000000     0.656230000000     0.0578882  
H173     H      0.155810000000     0.597460000000     0.682490000000     0.0443826  
H174     H      0.102760000000     0.671840000000     0.661230000000     0.0591006  
H175     H      0.184960000000     0.571520000000     0.610880000000     0.0509475  
H176     H      0.094680000000     0.656450000000     0.835730000000     0.0446391  
H177     H      0.056670000000     0.660600000000     0.907490000000     0.0550109  
H178     H      0.203250000000     0.606090000000     0.857960000000     0.0465675  
H179     H      0.127560000000     0.577030000000     0.861840000000     0.0423594  
H180     H      0.105210000000     0.681350000000     0.936050000000     0.0616528  
H181     H      0.157570000000     0.560610000000     0.911410000000     0.0533116  
H182     H      0.105720000000     0.710350000000     0.859980000000     0.0543452  
H183     H      0.138710000000     0.948130000000     0.681960000000     0.0439856  
H184     H      0.216590000000     0.925290000000     0.677470000000     0.0545328  
H185     H      0.087170000000     0.875710000000     0.672250000000     0.0436141  
H186     H      0.133610000000     0.808960000000     0.657080000000     0.0568783  
H187     H      0.209100000000     0.904700000000     0.620690000000     0.0454498  
H188     H      0.157920000000     0.835740000000     0.608630000000     0.0487366  
H189     H      0.163580000000     0.971450000000     0.632190000000     0.0511262  
H190     H      0.391570000000     0.587690000000     0.689160000000     0.0437595  
H191     H      0.318130000000     0.619500000000     0.672380000000     0.0515203  
H192     H      0.448140000000     0.650640000000     0.693780000000     0.0426145  
H193     H      0.416780000000     0.725160000000     0.673230000000     0.0574593  
H194     H      0.337590000000     0.640480000000     0.618880000000     0.0455832  
H195     H      0.399100000000     0.703060000000     0.619520000000     0.0513013  
H196     H      0.372490000000     0.568240000000     0.635200000000     0.0512952  
H197     H      0.338170000000     0.895120000000     0.932490000000     0.0439002  
H198     H      0.362210000000     0.972760000000     0.928660000000     0.0494685  
H199     H      0.411420000000     0.842590000000     0.923110000000     0.0478048  
H200     H      0.477870000000     0.889610000000     0.908320000000     0.0615361  
H201     H      0.382780000000     0.965590000000     0.871910000000     0.0446559  
H202     H      0.451300000000     0.913930000000     0.859890000000     0.0464269  
H203     H      0.316220000000     0.919990000000     0.882100000000     0.0523746  
H204     H      0.340490000000     0.639630000000     0.953390000000     0.0492469  
H205     H      0.324190000000     0.616780000000     0.876100000000     0.0529239  
H206     H      0.395500000000     0.703530000000     0.953200000000     0.0438803  
H207     H      0.420840000000     0.723380000000     0.876950000000     0.0630245  
H208     H      0.381170000000     0.600350000000     0.866790000000     0.0444659  
H209     H      0.442690000000     0.667970000000     0.868240000000     0.0496532  
H210     H      0.359290000000     0.583430000000     0.944370000000     0.0539986  
H211     H      0.192080000000     0.899550000000     0.945810000000     0.0444468  
H212     H      0.205140000000     0.925080000000     0.868000000000     0.0517936  
H213     H      0.135440000000     0.836740000000     0.947870000000     0.0444186  
H214     H      0.110220000000     0.816490000000     0.871840000000     0.0563921  
H215     H      0.147270000000     0.939510000000     0.861610000000     0.0439752  
H216     H      0.088030000000     0.871830000000     0.862880000000     0.0489078  
H217     H      0.173980000000     0.956330000000     0.938090000000     0.0519082  
H218     H      0.395220000000     0.845210000000     0.634940000000     0.0483502  
H219     H      0.470750000000     0.875110000000     0.635020000000     0.0593309  
H220     H      0.333820000000     0.916830000000     0.643150000000     0.0426664  
H221     H      0.377620000000     0.984740000000     0.641940000000     0.0527376  
H222     H      0.461890000000     0.902150000000     0.688680000000     0.0458615  
H223     H      0.407820000000     0.969370000000     0.692060000000     0.0457296  
H224     H      0.423510000000     0.830700000000     0.686340000000     0.0558973  
H225     H      0.714760000000     0.122870000000     0.101580000000     0.0454884  
H226     H      0.714660000000     0.108180000000     0.182180000000     0.0511754  
H227     H      0.675080000000     0.193140000000     0.091140000000     0.0423921  
H228     H      0.632730000000     0.223940000000     0.156230000000     0.0578878  
H229     H      0.655810000000     0.097450000000     0.182490000000     0.0443429  
H230     H      0.602760000000     0.171840000000     0.161230000000     0.0591178  
H231     H      0.684960000000     0.071520000000     0.110880000000     0.0508861  
H232     H      0.594680000000     0.156450000000     0.335720000000     0.0446441  
H233     H      0.556670000000     0.160600000000     0.407480000000     0.0550142  
H234     H      0.703250000000     0.106090000000     0.357960000000     0.0465487  
H235     H      0.627560000000     0.077030000000     0.361840000000     0.0423442  
H236     H      0.605210000000     0.181350000000     0.436050000000     0.0615897  
H237     H      0.657570000000     0.060610000000     0.411410000000     0.0532543  
H238     H      0.605720000000     0.210350000000     0.359980000000     0.0543439  
H239     H      0.638710000000     0.448130000000     0.181960000000     0.0439959  
H240     H      0.716590000000     0.425290000000     0.177470000000     0.0545027  
H241     H      0.587170000000     0.375700000000     0.172250000000     0.0436238  
H242     H      0.633610000000     0.308950000000     0.157080000000     0.0568653  
H243     H      0.709100000000     0.404700000000     0.120690000000     0.0453784  
H244     H      0.657920000000     0.335740000000     0.108640000000     0.0486818  
H245     H      0.663580000000     0.471450000000     0.132190000000     0.0510895  
H246     H      0.891570000000     0.087690000000     0.189160000000     0.0437606  
H247     H      0.818130000000     0.119500000000     0.172380000000     0.0514933  
H248     H      0.948130000000     0.150640000000     0.193780000000     0.0426321  
H249     H      0.916780000000     0.225160000000     0.173230000000     0.0574332  
H250     H      0.837590000000     0.140480000000     0.118890000000     0.0455213  
H251     H      0.899100000000     0.203060000000     0.119520000000     0.0512312  
H252     H      0.872500000000     0.068240000000     0.135200000000     0.0512585  
H253     H      0.838170000000     0.395120000000     0.432490000000     0.0438281  
H254     H      0.862210000000     0.472770000000     0.428660000000     0.0493857  
H255     H      0.911420000000     0.342590000000     0.423110000000     0.0477642  
H256     H      0.977870000000     0.389610000000     0.408320000000     0.0615611  
H257     H      0.882780000000     0.465590000000     0.371910000000     0.0446212  
H258     H      0.951300000000     0.413930000000     0.359890000000     0.0464435  
H259     H      0.816220000000     0.420000000000     0.382100000000     0.0523367  
H260     H      0.840490000000     0.139630000000     0.453390000000     0.0491805  
H261     H      0.824190000000     0.116780000000     0.376100000000     0.0529005  
H262     H      0.895500000000     0.203530000000     0.453200000000     0.043818   
H263     H      0.920840000000     0.223380000000     0.376950000000     0.0630295  
H264     H      0.881170000000     0.100350000000     0.366790000000     0.0444472  
H265     H      0.942690000000     0.167970000000     0.368240000000     0.0496686  
H266     H      0.859290000000     0.083430000000     0.444370000000     0.0539307  
H267     H      0.692080000000     0.399550000000     0.445810000000     0.0443602  
H268     H      0.705140000000     0.425080000000     0.368000000000     0.051764   
H269     H      0.635440000000     0.336740000000     0.447870000000     0.0443304  
H270     H      0.610220000000     0.316490000000     0.371840000000     0.0564015  
H271     H      0.647270000000     0.439510000000     0.361610000000     0.0439566  
H272     H      0.588030000000     0.371830000000     0.362880000000     0.0489342  
H273     H      0.673980000000     0.456320000000     0.438090000000     0.0518259  
H274     H      0.895210000000     0.345210000000     0.134940000000     0.0483245  
H275     H      0.970760000000     0.375110000000     0.135020000000     0.0593104  
H276     H      0.833820000000     0.416830000000     0.143150000000     0.0426046  
H277     H      0.877620000000     0.484740000000     0.141940000000     0.0526726  
H278     H      0.961890000000     0.402150000000     0.188680000000     0.0458572  
H279     H      0.907820000000     0.469370000000     0.192060000000     0.0457092  
H280     H      0.923510000000     0.330700000000     0.186340000000     0.0559203  
H281     H      0.714760000000     0.122870000000     0.601580000000     0.0455491  
H282     H      0.714660000000     0.108180000000     0.682180000000     0.0511789  
H283     H      0.675080000000     0.193140000000     0.591140000000     0.042454   
H284     H      0.632730000000     0.223940000000     0.656230000000     0.0578919  
H285     H      0.655810000000     0.097450000000     0.682490000000     0.0443344  
H286     H      0.602760000000     0.171840000000     0.661230000000     0.0591092  
H287     H      0.684960000000     0.071520000000     0.610880000000     0.0509194  
H288     H      0.594680000000     0.156450000000     0.835730000000     0.0446456  
H289     H      0.556670000000     0.160600000000     0.907490000000     0.0550307  
H290     H      0.703250000000     0.106090000000     0.857960000000     0.0465512  
H291     H      0.627560000000     0.077030000000     0.861840000000     0.0423403  
H292     H      0.605210000000     0.181350000000     0.936050000000     0.0616565  
H293     H      0.657570000000     0.060610000000     0.911410000000     0.0532761  
H294     H      0.605720000000     0.210350000000     0.859980000000     0.0543528  
H295     H      0.638710000000     0.448130000000     0.681960000000     0.0439705  
H296     H      0.716590000000     0.425290000000     0.677470000000     0.0545158  
H297     H      0.587170000000     0.375700000000     0.672250000000     0.0436147  
H298     H      0.633610000000     0.308950000000     0.657080000000     0.0568678  
H299     H      0.709100000000     0.404700000000     0.620690000000     0.045438   
H300     H      0.657920000000     0.335740000000     0.608630000000     0.0487286  
H301     H      0.663580000000     0.471450000000     0.632190000000     0.0510944  
H302     H      0.891570000000     0.087690000000     0.689160000000     0.0437537  
H303     H      0.818130000000     0.119500000000     0.672380000000     0.0514987  
H304     H      0.948130000000     0.150640000000     0.693780000000     0.0426212  
H305     H      0.916780000000     0.225160000000     0.673230000000     0.0574448  
H306     H      0.837590000000     0.140480000000     0.618880000000     0.0455695  
H307     H      0.899100000000     0.203060000000     0.619520000000     0.0512927  
H308     H      0.872500000000     0.068240000000     0.635200000000     0.0512815  
H309     H      0.838170000000     0.395120000000     0.932490000000     0.0438904  
H310     H      0.862210000000     0.472770000000     0.928660000000     0.0494215  
H311     H      0.911420000000     0.342590000000     0.923110000000     0.0478135  
H312     H      0.977870000000     0.389610000000     0.908320000000     0.0615654  
H313     H      0.882780000000     0.465590000000     0.871910000000     0.0446178  
H314     H      0.951300000000     0.413930000000     0.859890000000     0.0464352  
H315     H      0.816220000000     0.420000000000     0.882100000000     0.0523514  
H316     H      0.840490000000     0.139630000000     0.953390000000     0.0492488  
H317     H      0.824190000000     0.116780000000     0.876100000000     0.0529064  
H318     H      0.895500000000     0.203530000000     0.953200000000     0.0438862  
H319     H      0.920840000000     0.223380000000     0.876950000000     0.0630332  
H320     H      0.881170000000     0.100350000000     0.866790000000     0.0444436  
H321     H      0.942690000000     0.167970000000     0.868240000000     0.049663   
H322     H      0.859290000000     0.083430000000     0.944370000000     0.0539743  
H323     H      0.692080000000     0.399550000000     0.945810000000     0.0444288  
H324     H      0.705140000000     0.425080000000     0.868000000000     0.0517698  
H325     H      0.635440000000     0.336740000000     0.947870000000     0.044403   
H326     H      0.610220000000     0.316490000000     0.871840000000     0.056406   
H327     H      0.647270000000     0.439510000000     0.861610000000     0.0439525  
H328     H      0.588030000000     0.371830000000     0.862880000000     0.0489272  
H329     H      0.673980000000     0.456320000000     0.938090000000     0.0518695  
H330     H      0.895210000000     0.345210000000     0.634940000000     0.0483593  
H331     H      0.970760000000     0.375110000000     0.635020000000     0.0593294  
H332     H      0.833820000000     0.416830000000     0.643150000000     0.0426431  
H333     H      0.877620000000     0.484740000000     0.641940000000     0.0526992  
H334     H      0.961890000000     0.402150000000     0.688680000000     0.0458495  
H335     H      0.907820000000     0.469370000000     0.692060000000     0.0457117  
H336     H      0.923510000000     0.330700000000     0.686340000000     0.0559129  
H337     H      0.714760000000     0.622870000000     0.101580000000     0.0454909  
H338     H      0.714660000000     0.608170000000     0.182180000000     0.0512067  
H339     H      0.675080000000     0.693140000000     0.091140000000     0.0423919  
H340     H      0.632730000000     0.723940000000     0.156230000000     0.0578882  
H341     H      0.655810000000     0.597460000000     0.182490000000     0.0443974  
H342     H      0.602760000000     0.671840000000     0.161230000000     0.0591218  
H343     H      0.684960000000     0.571520000000     0.110880000000     0.0509128  
H344     H      0.594680000000     0.656450000000     0.335720000000     0.0446518  
H345     H      0.556670000000     0.660600000000     0.407480000000     0.0550172  
H346     H      0.703250000000     0.606090000000     0.357960000000     0.046565   
H347     H      0.627560000000     0.577030000000     0.361840000000     0.0423719  
H348     H      0.605210000000     0.681350000000     0.436050000000     0.0615879  
H349     H      0.657570000000     0.560610000000     0.411410000000     0.0532897  
H350     H      0.605720000000     0.710350000000     0.359980000000     0.0543449  
H351     H      0.638710000000     0.948130000000     0.181960000000     0.044019   
H352     H      0.716590000000     0.925290000000     0.177470000000     0.0545191  
H353     H      0.587170000000     0.875710000000     0.172250000000     0.0436295  
H354     H      0.633610000000     0.808960000000     0.157080000000     0.0568809  
H355     H      0.709100000000     0.904700000000     0.120690000000     0.0453857  
H356     H      0.657920000000     0.835740000000     0.108640000000     0.0486899  
H357     H      0.663580000000     0.971450000000     0.132190000000     0.0511218  
H358     H      0.891570000000     0.587690000000     0.189160000000     0.0437848  
H359     H      0.818130000000     0.619500000000     0.172380000000     0.051509   
H360     H      0.948130000000     0.650640000000     0.193780000000     0.0426501  
H361     H      0.916780000000     0.725160000000     0.173230000000     0.0574316  
H362     H      0.837590000000     0.640480000000     0.118890000000     0.0455278  
H363     H      0.899100000000     0.703060000000     0.119520000000     0.0512268  
H364     H      0.872500000000     0.568240000000     0.135200000000     0.0512926  
H365     H      0.838170000000     0.895120000000     0.432490000000     0.0438409  
H366     H      0.862210000000     0.972760000000     0.428660000000     0.049424   
H367     H      0.911420000000     0.842590000000     0.423110000000     0.0477612  
H368     H      0.977870000000     0.889610000000     0.408320000000     0.0615671  
H369     H      0.882780000000     0.965590000000     0.371910000000     0.0446544  
H370     H      0.951300000000     0.913930000000     0.359890000000     0.0464586  
H371     H      0.816220000000     0.919990000000     0.382100000000     0.0523631  
H372     H      0.840490000000     0.639630000000     0.453390000000     0.0491769  
H373     H      0.824190000000     0.616780000000     0.376100000000     0.0529177  
H374     H      0.895500000000     0.703530000000     0.453200000000     0.0438197  
H375     H      0.920840000000     0.723380000000     0.376950000000     0.0630263  
H376     H      0.881170000000     0.600350000000     0.366790000000     0.0444753  
H377     H      0.942690000000     0.667970000000     0.368240000000     0.0496742  
H378     H      0.859290000000     0.583430000000     0.444370000000     0.0539542  
H379     H      0.692080000000     0.899550000000     0.445810000000     0.0443752  
H380     H      0.705140000000     0.925080000000     0.368000000000     0.0517881  
H381     H      0.635440000000     0.836740000000     0.447870000000     0.0443443  
H382     H      0.610220000000     0.816490000000     0.371840000000     0.0563959  
H383     H      0.647270000000     0.939510000000     0.361610000000     0.0439864  
H384     H      0.588030000000     0.871830000000     0.362880000000     0.0489336  
H385     H      0.673980000000     0.956330000000     0.438090000000     0.0518623  
H386     H      0.895210000000     0.845210000000     0.134940000000     0.0483186  
H387     H      0.970760000000     0.875110000000     0.135020000000     0.0593304  
H388     H      0.833820000000     0.916830000000     0.143150000000     0.0426113  
H389     H      0.877620000000     0.984740000000     0.141940000000     0.0527138  
H390     H      0.961890000000     0.902150000000     0.188680000000     0.0458838  
H391     H      0.907820000000     0.969370000000     0.192060000000     0.0457413  
H392     H      0.923510000000     0.830700000000     0.186340000000     0.0559153  
H393     H      0.714760000000     0.622870000000     0.601580000000     0.0455516  
H394     H      0.714660000000     0.608170000000     0.682180000000     0.0512102  
H395     H      0.675080000000     0.693140000000     0.591140000000     0.0424537  
H396     H      0.632730000000     0.723940000000     0.656230000000     0.0578924  
H397     H      0.655810000000     0.597460000000     0.682490000000     0.0443889  
H398     H      0.602760000000     0.671840000000     0.661230000000     0.0591132  
H399     H      0.684960000000     0.571520000000     0.610880000000     0.0509461  
H400     H      0.594680000000     0.656450000000     0.835730000000     0.0446532  
H401     H      0.556670000000     0.660600000000     0.907490000000     0.0550337  
H402     H      0.703250000000     0.606090000000     0.857960000000     0.0465674  
H403     H      0.627560000000     0.577030000000     0.861840000000     0.042368   
H404     H      0.605210000000     0.681350000000     0.936050000000     0.0616547  
H405     H      0.657570000000     0.560610000000     0.911410000000     0.0533115  
H406     H      0.605720000000     0.710350000000     0.859980000000     0.0543538  
H407     H      0.638710000000     0.948130000000     0.681960000000     0.0439936  
H408     H      0.716590000000     0.925290000000     0.677470000000     0.0545322  
H409     H      0.587170000000     0.875710000000     0.672250000000     0.0436204  
H410     H      0.633610000000     0.808960000000     0.657080000000     0.0568834  
H411     H      0.709100000000     0.904700000000     0.620690000000     0.0454452  
H412     H      0.657920000000     0.835740000000     0.608630000000     0.0487367  
H413     H      0.663580000000     0.971450000000     0.632190000000     0.0511267  
H414     H      0.891570000000     0.587690000000     0.689160000000     0.0437779  
H415     H      0.818130000000     0.619500000000     0.672380000000     0.0515143  
H416     H      0.948130000000     0.650640000000     0.693780000000     0.0426392  
H417     H      0.916780000000     0.725160000000     0.673230000000     0.0574432  
H418     H      0.837590000000     0.640480000000     0.618880000000     0.045576   
H419     H      0.899100000000     0.703060000000     0.619520000000     0.0512883  
H420     H      0.872500000000     0.568240000000     0.635200000000     0.0513156  
H421     H      0.838170000000     0.895120000000     0.932490000000     0.0439032  
H422     H      0.862210000000     0.972760000000     0.928660000000     0.0494597  
H423     H      0.911420000000     0.842590000000     0.923110000000     0.0478106  
H424     H      0.977870000000     0.889610000000     0.908320000000     0.0615715  
H425     H      0.882780000000     0.965590000000     0.871910000000     0.044651   
H426     H      0.951300000000     0.913930000000     0.859890000000     0.0464503  
H427     H      0.816220000000     0.919990000000     0.882100000000     0.0523778  
H428     H      0.840490000000     0.639630000000     0.953390000000     0.0492453  
H429     H      0.824190000000     0.616780000000     0.876100000000     0.0529236  
H430     H      0.895500000000     0.703530000000     0.953200000000     0.043888   
H431     H      0.920840000000     0.723380000000     0.876950000000     0.06303    
H432     H      0.881170000000     0.600350000000     0.866790000000     0.0444717  
H433     H      0.942690000000     0.667970000000     0.868240000000     0.0496686  
H434     H      0.859290000000     0.583430000000     0.944370000000     0.0539978  
H435     H      0.692080000000     0.899550000000     0.945810000000     0.0444437  
H436     H      0.705140000000     0.925080000000     0.868000000000     0.0517938  
H437     H      0.635440000000     0.836740000000     0.947870000000     0.0444169  
H438     H      0.610220000000     0.816490000000     0.871840000000     0.0564004  
H439     H      0.647270000000     0.939510000000     0.861610000000     0.0439823  
H440     H      0.588030000000     0.871830000000     0.862880000000     0.0489266  
H441     H      0.673980000000     0.956330000000     0.938090000000     0.0519059  
H442     H      0.895210000000     0.845210000000     0.634940000000     0.0483535  
H443     H      0.970760000000     0.875110000000     0.635020000000     0.0593494  
H444     H      0.833820000000     0.916830000000     0.643150000000     0.0426498  
H445     H      0.877620000000     0.984740000000     0.641940000000     0.0527404  
H446     H      0.961890000000     0.902150000000     0.688680000000     0.0458762  
H447     H      0.907820000000     0.969370000000     0.692060000000     0.0457437  
H448     H      0.923510000000     0.830700000000     0.686340000000     0.0559079  
N1       N      0.144690000000     0.129180000000     0.092880000000    -0.160368   
N2       N      0.171670000000     0.166230000000     0.176600000000    -0.159293   
N3       N      0.080390000000     0.224070000000     0.043880000000    -0.0805751  
N4       N      0.160890000000     0.163920000000     0.359540000000    -0.164459   
N5       N      0.107460000000     0.112190000000     0.420370000000    -0.161147   
N6       N      0.228190000000     0.148260000000     0.459450000000    -0.103762   
N7       N      0.116030000000     0.417200000000     0.121640000000    -0.1625     
N8       N      0.177590000000     0.364890000000     0.170500000000    -0.162138   
N9       N      0.040070000000     0.325290000000     0.083130000000    -0.0844117  
N10      N      0.426240000000     0.117440000000     0.134190000000    -0.162873   
N11      N      0.364420000000     0.175220000000     0.175080000000    -0.163036   
N12      N      0.021810000000     0.198610000000     0.125210000000    -0.0897199  
N13      N      0.369420000000     0.371320000000     0.372850000000    -0.160209   
N14      N      0.422530000000     0.433970000000     0.421660000000    -0.160624   
N15      N      0.461910000000     0.296810000000     0.333280000000    -0.0956066  
N16      N      0.411070000000     0.134380000000     0.449800000000    -0.16051    
N17      N      0.372140000000     0.170500000000     0.370040000000    -0.159823   
N18      N      0.505070000000     0.215650000000     0.464560000000    -0.0838716  
N19      N      0.121530000000     0.406240000000     0.444330000000    -0.160877   
N20      N      0.158530000000     0.369570000000     0.364440000000    -0.161601   
N21      N      0.025810000000     0.327120000000     0.460490000000    -0.0862606  
N22      N      0.370900000000     0.380470000000     0.192110000000    -0.161879   
N23      N      0.426310000000     0.432040000000     0.134790000000    -0.161618   
N24      N      0.297700000000     0.471720000000     0.234820000000    -0.0985962  
N25      N      0.144690000000     0.129180000000     0.592880000000    -0.160348   
N26      N      0.171670000000     0.166230000000     0.676600000000    -0.159294   
N27      N      0.080390000000     0.224070000000     0.543880000000    -0.0804407  
N28      N      0.160890000000     0.163920000000     0.859540000000    -0.164454   
N29      N      0.107460000000     0.112190000000     0.920370000000    -0.16112    
N30      N      0.228190000000     0.148260000000     0.959450000000    -0.103659   
N31      N      0.116030000000     0.417200000000     0.621640000000    -0.162503   
N32      N      0.177590000000     0.364890000000     0.670500000000    -0.162132   
N33      N      0.040070000000     0.325290000000     0.583130000000    -0.0843292  
N34      N      0.426240000000     0.117440000000     0.634190000000    -0.162874   
N35      N      0.364420000000     0.175220000000     0.675080000000    -0.163031   
N36      N      0.021810000000     0.198610000000     0.625210000000    -0.0896998  
N37      N      0.369420000000     0.371320000000     0.872850000000    -0.160203   
N38      N      0.422530000000     0.433970000000     0.921660000000    -0.160601   
N39      N      0.461910000000     0.296810000000     0.833280000000    -0.0956228  
N40      N      0.411070000000     0.134380000000     0.949800000000    -0.160471   
N41      N      0.372140000000     0.170500000000     0.870040000000    -0.159823   
N42      N      0.505070000000     0.215650000000     0.964550000000    -0.083789   
N43      N      0.121530000000     0.406240000000     0.944330000000    -0.160839   
N44      N      0.158530000000     0.369570000000     0.864440000000    -0.161601   
N45      N      0.025810000000     0.327120000000     0.960490000000    -0.086183   
N46      N      0.370900000000     0.380470000000     0.692100000000    -0.161852   
N47      N      0.426310000000     0.432040000000     0.634790000000    -0.16161    
N48      N      0.297700000000     0.471720000000     0.734820000000    -0.0985965  
N49      N      0.144690000000     0.629180000000     0.092880000000    -0.160369   
N50      N      0.171670000000     0.666230000000     0.176600000000    -0.159296   
N51      N      0.080390000000     0.724070000000     0.043880000000    -0.0805762  
N52      N      0.160890000000     0.663920000000     0.359540000000    -0.164459   
N53      N      0.107460000000     0.612190000000     0.420370000000    -0.161142   
N54      N      0.228190000000     0.648260000000     0.459450000000    -0.103757   
N55      N      0.116030000000     0.917200000000     0.121640000000    -0.16254    
N56      N      0.177590000000     0.864890000000     0.170500000000    -0.162114   
N57      N      0.040070000000     0.825290000000     0.083130000000    -0.0844129  
N58      N      0.426240000000     0.617430000000     0.134190000000    -0.16289    
N59      N      0.364420000000     0.675220000000     0.175080000000    -0.163037   
N60      N      0.021810000000     0.698610000000     0.125210000000    -0.0897156  
N61      N      0.369420000000     0.871310000000     0.372850000000    -0.160234   
N62      N      0.422530000000     0.933970000000     0.421660000000    -0.160612   
N63      N      0.461910000000     0.796820000000     0.333280000000    -0.0956157  
N64      N      0.411070000000     0.634370000000     0.449800000000    -0.160535   
N65      N      0.372140000000     0.670500000000     0.370040000000    -0.159822   
N66      N      0.505070000000     0.715660000000     0.464560000000    -0.0838734  
N67      N      0.121530000000     0.906230000000     0.444330000000    -0.160828   
N68      N      0.158530000000     0.869560000000     0.364440000000    -0.161606   
N69      N      0.025810000000     0.827120000000     0.460490000000    -0.0862655  
N70      N      0.370900000000     0.880470000000     0.192110000000    -0.161882   
N71      N      0.426310000000     0.932040000000     0.134790000000    -0.161599   
N72      N      0.297700000000     0.971720000000     0.234820000000    -0.0985607  
N73      N      0.144690000000     0.629180000000     0.592880000000    -0.160349   
N74      N      0.171670000000     0.666230000000     0.676600000000    -0.159297   
N75      N      0.080390000000     0.724070000000     0.543880000000    -0.0804418  
N76      N      0.160890000000     0.663920000000     0.859540000000    -0.164454   
N77      N      0.107460000000     0.612190000000     0.920370000000    -0.161115   
N78      N      0.228190000000     0.648260000000     0.959450000000    -0.103654   
N79      N      0.116030000000     0.917200000000     0.621640000000    -0.162543   
N80      N      0.177590000000     0.864890000000     0.670500000000    -0.162109   
N81      N      0.040070000000     0.825290000000     0.583130000000    -0.0843303  
N82      N      0.426240000000     0.617430000000     0.634190000000    -0.162891   
N83      N      0.364420000000     0.675220000000     0.675080000000    -0.163032   
N84      N      0.021810000000     0.698610000000     0.625210000000    -0.0896955  
N85      N      0.369420000000     0.871310000000     0.872850000000    -0.160228   
N86      N      0.422530000000     0.933970000000     0.921660000000    -0.16059    
N87      N      0.461910000000     0.796820000000     0.833280000000    -0.095632   
N88      N      0.411070000000     0.634370000000     0.949800000000    -0.160497   
N89      N      0.372140000000     0.670500000000     0.870040000000    -0.159822   
N90      N      0.505070000000     0.715660000000     0.964550000000    -0.0837908  
N91      N      0.121530000000     0.906230000000     0.944330000000    -0.16079    
N92      N      0.158530000000     0.869560000000     0.864440000000    -0.161606   
N93      N      0.025810000000     0.827120000000     0.960490000000    -0.0861879  
N94      N      0.370900000000     0.880470000000     0.692100000000    -0.161854   
N95      N      0.426310000000     0.932040000000     0.634790000000    -0.161592   
N96      N      0.297700000000     0.971720000000     0.734820000000    -0.098561   
N97      N      0.644690000000     0.129180000000     0.092880000000    -0.160373   
N98      N      0.671670000000     0.166230000000     0.176600000000    -0.159294   
N99      N      0.580390000000     0.224070000000     0.043880000000    -0.0805659  
N100     N      0.660890000000     0.163920000000     0.359540000000    -0.164461   
N101     N      0.607460000000     0.112190000000     0.420370000000    -0.161147   
N102     N      0.728190000000     0.148260000000     0.459450000000    -0.103764   
N103     N      0.616030000000     0.417200000000     0.121640000000    -0.162508   
N104     N      0.677590000000     0.364890000000     0.170500000000    -0.16216    
N105     N      0.540070000000     0.325290000000     0.083130000000    -0.0843833  
N106     N      0.926250000000     0.117440000000     0.134190000000    -0.162883   
N107     N      0.864420000000     0.175220000000     0.175080000000    -0.163067   
N108     N      0.521810000000     0.198610000000     0.125210000000    -0.0896402  
N109     N      0.869420000000     0.371320000000     0.372850000000    -0.16019    
N110     N      0.922520000000     0.433970000000     0.421660000000    -0.160595   
N111     N      0.961910000000     0.296810000000     0.333280000000    -0.0955825  
N112     N      0.911070000000     0.134380000000     0.449800000000    -0.160503   
N113     N      0.872140000000     0.170500000000     0.370040000000    -0.159824   
N114     N      0.005070000000     0.215650000000     0.464560000000    -0.0839509  
N115     N      0.621530000000     0.406240000000     0.444330000000    -0.16088    
N116     N      0.658530000000     0.369570000000     0.364440000000    -0.161602   
N117     N      0.525810000000     0.327120000000     0.460490000000    -0.0862259  
N118     N      0.870900000000     0.380470000000     0.192110000000    -0.161889   
N119     N      0.926310000000     0.432040000000     0.134790000000    -0.161629   
N120     N      0.797700000000     0.471720000000     0.234820000000    -0.0985926  
N121     N      0.644690000000     0.129180000000     0.592880000000    -0.160353   
N122     N      0.671670000000     0.166230000000     0.676600000000    -0.159295   
N123     N      0.580390000000     0.224070000000     0.543880000000    -0.0804315  
N124     N      0.660890000000     0.163920000000     0.859540000000    -0.164456   
N125     N      0.607460000000     0.112190000000     0.920370000000    -0.16112    
N126     N      0.728190000000     0.148260000000     0.959450000000    -0.103661   
N127     N      0.616030000000     0.417200000000     0.621640000000    -0.162511   
N128     N      0.677590000000     0.364890000000     0.670500000000    -0.162154   
N129     N      0.540070000000     0.325290000000     0.583130000000    -0.0843008  
N130     N      0.926250000000     0.117440000000     0.634190000000    -0.162883   
N131     N      0.864420000000     0.175220000000     0.675080000000    -0.163062   
N132     N      0.521810000000     0.198610000000     0.625210000000    -0.0896202  
N133     N      0.869420000000     0.371320000000     0.872850000000    -0.160184   
N134     N      0.922520000000     0.433970000000     0.921660000000    -0.160572   
N135     N      0.961910000000     0.296810000000     0.833280000000    -0.0955988  
N136     N      0.911070000000     0.134380000000     0.949800000000    -0.160465   
N137     N      0.872140000000     0.170500000000     0.870040000000    -0.159824   
N138     N      0.005070000000     0.215650000000     0.964550000000    -0.0838683  
N139     N      0.621530000000     0.406240000000     0.944330000000    -0.160842   
N140     N      0.658530000000     0.369570000000     0.864440000000    -0.161602   
N141     N      0.525810000000     0.327120000000     0.960490000000    -0.0861482  
N142     N      0.870900000000     0.380470000000     0.692100000000    -0.161862   
N143     N      0.926310000000     0.432040000000     0.634790000000    -0.161622   
N144     N      0.797700000000     0.471720000000     0.734820000000    -0.098593   
N145     N      0.644690000000     0.629180000000     0.092880000000    -0.160374   
N146     N      0.671670000000     0.666230000000     0.176600000000    -0.159297   
N147     N      0.580390000000     0.724070000000     0.043880000000    -0.080567   
N148     N      0.660890000000     0.663920000000     0.359540000000    -0.164461   
N149     N      0.607460000000     0.612190000000     0.420370000000    -0.161142   
N150     N      0.728190000000     0.648260000000     0.459450000000    -0.103759   
N151     N      0.616030000000     0.917200000000     0.121640000000    -0.162548   
N152     N      0.677590000000     0.864890000000     0.170500000000    -0.162136   
N153     N      0.540070000000     0.825290000000     0.083130000000    -0.0843845  
N154     N      0.926250000000     0.617430000000     0.134190000000    -0.162899   
N155     N      0.864420000000     0.675220000000     0.175080000000    -0.163067   
N156     N      0.521810000000     0.698610000000     0.125210000000    -0.0896359  
N157     N      0.869420000000     0.871310000000     0.372850000000    -0.160215   
N158     N      0.922520000000     0.933970000000     0.421660000000    -0.160583   
N159     N      0.961910000000     0.796820000000     0.333280000000    -0.0955917  
N160     N      0.911070000000     0.634370000000     0.449800000000    -0.160529   
N161     N      0.872140000000     0.670500000000     0.370040000000    -0.159823   
N162     N      0.005070000000     0.715660000000     0.464560000000    -0.0839527  
N163     N      0.621530000000     0.906230000000     0.444330000000    -0.160831   
N164     N      0.658530000000     0.869560000000     0.364440000000    -0.161606   
N165     N      0.525810000000     0.827120000000     0.460490000000    -0.0862308  
N166     N      0.870900000000     0.880470000000     0.192110000000    -0.161892   
N167     N      0.926310000000     0.932040000000     0.134790000000    -0.161611   
N168     N      0.797700000000     0.971720000000     0.234820000000    -0.0985571  
N169     N      0.644690000000     0.629180000000     0.592880000000    -0.160354   
N170     N      0.671670000000     0.666230000000     0.676600000000    -0.159298   
N171     N      0.580390000000     0.724070000000     0.543880000000    -0.0804326  
N172     N      0.660890000000     0.663920000000     0.859540000000    -0.164456   
N173     N      0.607460000000     0.612190000000     0.920370000000    -0.161115   
N174     N      0.728190000000     0.648260000000     0.959450000000    -0.103656   
N175     N      0.616030000000     0.917200000000     0.621640000000    -0.162551   
N176     N      0.677590000000     0.864890000000     0.670500000000    -0.162131   
N177     N      0.540070000000     0.825290000000     0.583130000000    -0.0843019  
N178     N      0.926250000000     0.617430000000     0.634190000000    -0.1629     
N179     N      0.864420000000     0.675220000000     0.675080000000    -0.163063   
N180     N      0.521810000000     0.698610000000     0.625210000000    -0.0896158  
N181     N      0.869420000000     0.871310000000     0.872850000000    -0.160209   
N182     N      0.922520000000     0.933970000000     0.921660000000    -0.160561   
N183     N      0.961910000000     0.796820000000     0.833280000000    -0.0956079  
N184     N      0.911070000000     0.634370000000     0.949800000000    -0.16049    
N185     N      0.872140000000     0.670500000000     0.870040000000    -0.159823   
N186     N      0.005070000000     0.715660000000     0.964550000000    -0.08387    
N187     N      0.621530000000     0.906230000000     0.944330000000    -0.160793   
N188     N      0.658530000000     0.869560000000     0.864440000000    -0.161607   
N189     N      0.525810000000     0.827120000000     0.960490000000    -0.0861531  
N190     N      0.870900000000     0.880470000000     0.692100000000    -0.161865   
N191     N      0.926310000000     0.932040000000     0.634790000000    -0.161603   
N192     N      0.797700000000     0.971720000000     0.734820000000    -0.0985575  
O1       O      0.479810000000     0.436400000000     0.472880000000    -0.373606   
O2       O      0.057200000000     0.111820000000     0.478210000000    -0.365667   
O3       O      0.423890000000     0.067770000000     0.486240000000    -0.369458   
O4       O      0.112080000000     0.471870000000     0.483870000000    -0.364041   
O5       O      0.475210000000     0.121190000000     0.491660000000    -0.354466   
O6       O      0.057200000000     0.421920000000     0.484270000000    -0.353421   
O7       O      0.102570000000     0.053250000000     0.469600000000    -0.377329   
O8       O      0.426280000000     0.487960000000     0.477090000000    -0.372174   
O9       O      0.057020000000     0.425940000000     0.072730000000    -0.349526   
O10      O      0.483690000000     0.112110000000     0.082700000000    -0.360175   
O11      O      0.428680000000     0.486720000000     0.080780000000    -0.361669   
O12      O      0.122910000000     0.062960000000     0.060350000000    -0.360886   
O13      O      0.074790000000     0.119720000000     0.061020000000    -0.345175   
O14      O      0.478480000000     0.431490000000     0.078310000000    -0.358925   
O15      O      0.109810000000     0.478040000000     0.074520000000    -0.363114   
O16      O      0.428440000000     0.062610000000     0.079900000000    -0.355272   
O17      O      0.519190000000     0.521510000000     0.546540000000    -0.58912    
O18      O      0.309420000000     0.368110000000     0.236930000000    -0.35426    
O19      O      0.227430000000     0.172670000000     0.229990000000    -0.351275   
O20      O      0.358860000000     0.232000000000     0.226530000000    -0.367818   
O21      O      0.179860000000     0.307460000000     0.221110000000    -0.365703   
O22      O      0.307670000000     0.177920000000     0.226720000000    -0.363902   
O23      O      0.229470000000     0.362620000000     0.227570000000    -0.355433   
O24      O      0.177750000000     0.227700000000     0.222640000000    -0.354069   
O25      O      0.362920000000     0.316720000000     0.234810000000    -0.360202   
O26      O      0.222300000000     0.362100000000     0.322630000000    -0.375547   
O27      O      0.310540000000     0.177210000000     0.323910000000    -0.367829   
O28      O      0.360890000000     0.311310000000     0.324470000000    -0.361494   
O29      O      0.170520000000     0.224870000000     0.313840000000    -0.374364   
O30      O      0.226930000000     0.177030000000     0.323060000000    -0.374695   
O31      O      0.306930000000     0.362130000000     0.327950000000    -0.365367   
O32      O      0.170990000000     0.308200000000     0.319180000000    -0.373322   
O33      O      0.361980000000     0.231100000000     0.323720000000    -0.369142   
O34      O      0.268190000000     0.269970000000     0.258540000000    -0.593471   
O35      O      0.479810000000     0.436400000000     0.972880000000    -0.373342   
O36      O      0.057200000000     0.111820000000     0.978210000000    -0.365376   
O37      O      0.423890000000     0.067770000000     0.986240000000    -0.369177   
O38      O      0.112080000000     0.471870000000     0.983870000000    -0.363752   
O39      O      0.475210000000     0.121190000000     0.991660000000    -0.354176   
O40      O      0.057200000000     0.421920000000     0.984270000000    -0.35314    
O41      O      0.102570000000     0.053250000000     0.969600000000    -0.377057   
O42      O      0.426280000000     0.487960000000     0.977090000000    -0.371901   
O43      O      0.057020000000     0.425940000000     0.572730000000    -0.349525   
O44      O      0.483690000000     0.112110000000     0.582700000000    -0.360189   
O45      O      0.428680000000     0.486720000000     0.580780000000    -0.361685   
O46      O      0.122910000000     0.062960000000     0.560350000000    -0.360867   
O47      O      0.074790000000     0.119720000000     0.561020000000    -0.345157   
O48      O      0.478480000000     0.431490000000     0.578310000000    -0.358941   
O49      O      0.109810000000     0.478040000000     0.574520000000    -0.363119   
O50      O      0.428440000000     0.062610000000     0.579900000000    -0.355272   
O51      O      0.519190000000     0.521510000000     0.046540000000    -0.588943   
O52      O      0.309420000000     0.368110000000     0.736930000000    -0.354247   
O53      O      0.227430000000     0.172670000000     0.729990000000    -0.351275   
O54      O      0.358860000000     0.232000000000     0.726530000000    -0.367817   
O55      O      0.179860000000     0.307460000000     0.721110000000    -0.365704   
O56      O      0.307670000000     0.177920000000     0.726720000000    -0.363901   
O57      O      0.229470000000     0.362620000000     0.727570000000    -0.355432   
O58      O      0.177750000000     0.227700000000     0.722640000000    -0.35407    
O59      O      0.362920000000     0.316720000000     0.734810000000    -0.36019    
O60      O      0.222300000000     0.362100000000     0.822630000000    -0.375545   
O61      O      0.310540000000     0.177210000000     0.823910000000    -0.367828   
O62      O      0.360890000000     0.311310000000     0.824470000000    -0.361495   
O63      O      0.170520000000     0.224870000000     0.813840000000    -0.374363   
O64      O      0.226930000000     0.177030000000     0.823060000000    -0.374693   
O65      O      0.306930000000     0.362130000000     0.827950000000    -0.365364   
O66      O      0.170990000000     0.308200000000     0.819180000000    -0.373321   
O67      O      0.361980000000     0.231100000000     0.823720000000    -0.369142   
O68      O      0.268190000000     0.269970000000     0.758540000000    -0.593466   
O69      O      0.479810000000     0.936400000000     0.472880000000    -0.373601   
O70      O      0.057200000000     0.611820000000     0.478210000000    -0.365666   
O71      O      0.423890000000     0.567770000000     0.486240000000    -0.369454   
O72      O      0.112080000000     0.971870000000     0.483870000000    -0.363929   
O73      O      0.475210000000     0.621190000000     0.491660000000    -0.354479   
O74      O      0.057200000000     0.921920000000     0.484270000000    -0.353406   
O75      O      0.102570000000     0.553250000000     0.469600000000    -0.377315   
O76      O      0.426280000000     0.987960000000     0.477090000000    -0.372068   
O77      O      0.057020000000     0.925940000000     0.072730000000    -0.349577   
O78      O      0.483690000000     0.612110000000     0.082700000000    -0.360184   
O79      O      0.428680000000     0.986720000000     0.080780000000    -0.36156    
O80      O      0.122910000000     0.562960000000     0.060350000000    -0.360869   
O81      O      0.074790000000     0.619720000000     0.061020000000    -0.345175   
O82      O      0.478480000000     0.931490000000     0.078310000000    -0.35892    
O83      O      0.109810000000     0.978030000000     0.074520000000    -0.363004   
O84      O      0.428440000000     0.562610000000     0.079900000000    -0.355262   
O85      O      0.519190000000     0.021510000000     0.546540000000    -0.589162   
O86      O      0.309420000000     0.868110000000     0.236930000000    -0.354258   
O87      O      0.227430000000     0.672680000000     0.229990000000    -0.351345   
O88      O      0.358860000000     0.732000000000     0.226530000000    -0.367819   
O89      O      0.179860000000     0.807460000000     0.221110000000    -0.365779   
O90      O      0.307670000000     0.677920000000     0.226720000000    -0.363897   
O91      O      0.229470000000     0.862620000000     0.227570000000    -0.355408   
O92      O      0.177750000000     0.727700000000     0.222640000000    -0.354084   
O93      O      0.362920000000     0.816720000000     0.234810000000    -0.360202   
O94      O      0.222300000000     0.862100000000     0.322630000000    -0.375535   
O95      O      0.310540000000     0.677210000000     0.323910000000    -0.367829   
O96      O      0.360890000000     0.811310000000     0.324470000000    -0.361503   
O97      O      0.170520000000     0.724870000000     0.313840000000    -0.374364   
O98      O      0.226930000000     0.677030000000     0.323060000000    -0.374695   
O99      O      0.306930000000     0.862130000000     0.327950000000    -0.365377   
O100     O      0.170990000000     0.808200000000     0.319180000000    -0.373406   
O101     O      0.361980000000     0.731100000000     0.323720000000    -0.369144   
O102     O      0.268190000000     0.769970000000     0.258540000000    -0.593478   
O103     O      0.479810000000     0.936400000000     0.972880000000    -0.373337   
O104     O      0.057200000000     0.611820000000     0.978210000000    -0.365376   
O105     O      0.423890000000     0.567770000000     0.986240000000    -0.369173   
O106     O      0.112080000000     0.971870000000     0.983870000000    -0.36364    
O107     O      0.475210000000     0.621190000000     0.991660000000    -0.354189   
O108     O      0.057200000000     0.921920000000     0.984270000000    -0.353125   
O109     O      0.102570000000     0.553250000000     0.969600000000    -0.377043   
O110     O      0.426280000000     0.987960000000     0.977090000000    -0.371795   
O111     O      0.057020000000     0.925940000000     0.572730000000    -0.349576   
O112     O      0.483690000000     0.612110000000     0.582700000000    -0.360198   
O113     O      0.428680000000     0.986720000000     0.580780000000    -0.361576   
O114     O      0.122910000000     0.562960000000     0.560350000000    -0.360849   
O115     O      0.074790000000     0.619720000000     0.561020000000    -0.345157   
O116     O      0.478480000000     0.931490000000     0.578310000000    -0.358935   
O117     O      0.109810000000     0.978030000000     0.574520000000    -0.363009   
O118     O      0.428440000000     0.562610000000     0.579900000000    -0.355261   
O119     O      0.519190000000     0.021510000000     0.046540000000    -0.588984   
O120     O      0.309420000000     0.868110000000     0.736930000000    -0.354245   
O121     O      0.227430000000     0.672680000000     0.729990000000    -0.351345   
O122     O      0.358860000000     0.732000000000     0.726530000000    -0.367817   
O123     O      0.179860000000     0.807460000000     0.721110000000    -0.365779   
O124     O      0.307670000000     0.677920000000     0.726720000000    -0.363896   
O125     O      0.229470000000     0.862620000000     0.727570000000    -0.355407   
O126     O      0.177750000000     0.727700000000     0.722640000000    -0.354085   
O127     O      0.362920000000     0.816720000000     0.734810000000    -0.36019    
O128     O      0.222300000000     0.862100000000     0.822630000000    -0.375533   
O129     O      0.310540000000     0.677210000000     0.823910000000    -0.367828   
O130     O      0.360890000000     0.811310000000     0.824470000000    -0.361503   
O131     O      0.170520000000     0.724870000000     0.813840000000    -0.374363   
O132     O      0.226930000000     0.677030000000     0.823060000000    -0.374694   
O133     O      0.306930000000     0.862130000000     0.827950000000    -0.365373   
O134     O      0.170990000000     0.808200000000     0.819180000000    -0.373404   
O135     O      0.361980000000     0.731100000000     0.823720000000    -0.369143   
O136     O      0.268190000000     0.769970000000     0.758540000000    -0.593473   
O137     O      0.979810000000     0.436400000000     0.472880000000    -0.373524   
O138     O      0.557200000000     0.111820000000     0.478210000000    -0.365668   
O139     O      0.923890000000     0.067770000000     0.486240000000    -0.36947    
O140     O      0.612080000000     0.471870000000     0.483870000000    -0.364093   
O141     O      0.975210000000     0.121190000000     0.491660000000    -0.354398   
O142     O      0.557200000000     0.421920000000     0.484270000000    -0.353421   
O143     O      0.602570000000     0.053250000000     0.469600000000    -0.377369   
O144     O      0.926280000000     0.487960000000     0.477090000000    -0.372172   
O145     O      0.557020000000     0.425940000000     0.072730000000    -0.349526   
O146     O      0.983690000000     0.112110000000     0.082700000000    -0.360107   
O147     O      0.928680000000     0.486720000000     0.080780000000    -0.361691   
O148     O      0.622910000000     0.062960000000     0.060350000000    -0.360948   
O149     O      0.574790000000     0.119720000000     0.061020000000    -0.345184   
O150     O      0.978480000000     0.431490000000     0.078310000000    -0.358778   
O151     O      0.609810000000     0.478040000000     0.074520000000    -0.36316    
O152     O      0.928440000000     0.062610000000     0.079900000000    -0.355288   
O153     O      0.019180000000     0.521510000000     0.546540000000    -0.589184   
O154     O      0.809420000000     0.368110000000     0.236930000000    -0.354269   
O155     O      0.727430000000     0.172670000000     0.229990000000    -0.351281   
O156     O      0.858850000000     0.232000000000     0.226530000000    -0.367894   
O157     O      0.679860000000     0.307460000000     0.221110000000    -0.365764   
O158     O      0.807670000000     0.177920000000     0.226720000000    -0.363921   
O159     O      0.729460000000     0.362620000000     0.227570000000    -0.355503   
O160     O      0.677750000000     0.227700000000     0.222640000000    -0.354097   
O161     O      0.862920000000     0.316720000000     0.234810000000    -0.360206   
O162     O      0.722300000000     0.362100000000     0.322630000000    -0.375548   
O163     O      0.810540000000     0.177210000000     0.323910000000    -0.367833   
O164     O      0.860900000000     0.311310000000     0.324470000000    -0.361424   
O165     O      0.670520000000     0.224870000000     0.313840000000    -0.374397   
O166     O      0.726930000000     0.177030000000     0.323060000000    -0.374702   
O167     O      0.806930000000     0.362130000000     0.327950000000    -0.365353   
O168     O      0.670990000000     0.308200000000     0.319180000000    -0.373351   
O169     O      0.861980000000     0.231100000000     0.323720000000    -0.369155   
O170     O      0.768200000000     0.269970000000     0.258540000000    -0.593429   
O171     O      0.979810000000     0.436400000000     0.972880000000    -0.373259   
O172     O      0.557200000000     0.111820000000     0.978210000000    -0.365377   
O173     O      0.923890000000     0.067770000000     0.986240000000    -0.369189   
O174     O      0.612080000000     0.471870000000     0.983870000000    -0.363804   
O175     O      0.975210000000     0.121190000000     0.991660000000    -0.354108   
O176     O      0.557200000000     0.421920000000     0.984270000000    -0.35314    
O177     O      0.602570000000     0.053250000000     0.969600000000    -0.377097   
O178     O      0.926280000000     0.487960000000     0.977090000000    -0.3719     
O179     O      0.557020000000     0.425940000000     0.572730000000    -0.349525   
O180     O      0.983690000000     0.112110000000     0.582700000000    -0.360121   
O181     O      0.928680000000     0.486720000000     0.580780000000    -0.361708   
O182     O      0.622910000000     0.062960000000     0.560350000000    -0.360928   
O183     O      0.574790000000     0.119720000000     0.561020000000    -0.345166   
O184     O      0.978480000000     0.431490000000     0.578310000000    -0.358794   
O185     O      0.609810000000     0.478040000000     0.574520000000    -0.363166   
O186     O      0.928440000000     0.062610000000     0.579900000000    -0.355288   
O187     O      0.019180000000     0.521510000000     0.046540000000    -0.589006   
O188     O      0.809420000000     0.368110000000     0.736930000000    -0.354256   
O189     O      0.727430000000     0.172670000000     0.729990000000    -0.351281   
O190     O      0.858850000000     0.232000000000     0.726530000000    -0.367892   
O191     O      0.679860000000     0.307460000000     0.721110000000    -0.365765   
O192     O      0.807670000000     0.177920000000     0.726720000000    -0.36392    
O193     O      0.729460000000     0.362620000000     0.727570000000    -0.355502   
O194     O      0.677750000000     0.227700000000     0.722640000000    -0.354097   
O195     O      0.862920000000     0.316720000000     0.734810000000    -0.360193   
O196     O      0.722300000000     0.362100000000     0.822630000000    -0.375545   
O197     O      0.810540000000     0.177210000000     0.823910000000    -0.367832   
O198     O      0.860900000000     0.311310000000     0.824470000000    -0.361425   
O199     O      0.670520000000     0.224870000000     0.813840000000    -0.374396   
O200     O      0.726930000000     0.177030000000     0.823060000000    -0.374701   
O201     O      0.806930000000     0.362130000000     0.827950000000    -0.365349   
O202     O      0.670990000000     0.308200000000     0.819180000000    -0.373349   
O203     O      0.861980000000     0.231100000000     0.823720000000    -0.369154   
O204     O      0.768200000000     0.269970000000     0.758540000000    -0.593423   
O205     O      0.979810000000     0.936400000000     0.472880000000    -0.373519   
O206     O      0.557200000000     0.611820000000     0.478210000000    -0.365667   
O207     O      0.923890000000     0.567770000000     0.486240000000    -0.369466   
O208     O      0.612080000000     0.971870000000     0.483870000000    -0.363981   
O209     O      0.975210000000     0.621190000000     0.491660000000    -0.35441    
O210     O      0.557200000000     0.921920000000     0.484270000000    -0.353406   
O211     O      0.602570000000     0.553250000000     0.469600000000    -0.377355   
O212     O      0.926280000000     0.987960000000     0.477090000000    -0.372066   
O213     O      0.557020000000     0.925940000000     0.072730000000    -0.349576   
O214     O      0.983690000000     0.612110000000     0.082700000000    -0.360116   
O215     O      0.928680000000     0.986720000000     0.080780000000    -0.361582   
O216     O      0.622910000000     0.562960000000     0.060350000000    -0.36093    
O217     O      0.574790000000     0.619720000000     0.061020000000    -0.345184   
O218     O      0.978480000000     0.931490000000     0.078310000000    -0.358772   
O219     O      0.609810000000     0.978030000000     0.074520000000    -0.36305    
O220     O      0.928440000000     0.562610000000     0.079900000000    -0.355278   
O221     O      0.019180000000     0.021510000000     0.546540000000    -0.589225   
O222     O      0.809420000000     0.868110000000     0.236930000000    -0.354267   
O223     O      0.727430000000     0.672680000000     0.229990000000    -0.351351   
O224     O      0.858850000000     0.732000000000     0.226530000000    -0.367894   
O225     O      0.679860000000     0.807460000000     0.221110000000    -0.36584    
O226     O      0.807670000000     0.677920000000     0.226720000000    -0.363916   
O227     O      0.729460000000     0.862620000000     0.227570000000    -0.355477   
O228     O      0.677750000000     0.727700000000     0.222640000000    -0.354112   
O229     O      0.862920000000     0.816720000000     0.234810000000    -0.360206   
O230     O      0.722300000000     0.862100000000     0.322630000000    -0.375536   
O231     O      0.810540000000     0.677210000000     0.323910000000    -0.367834   
O232     O      0.860900000000     0.811310000000     0.324470000000    -0.361433   
O233     O      0.670520000000     0.724870000000     0.313840000000    -0.374396   
O234     O      0.726930000000     0.677030000000     0.323060000000    -0.374703   
O235     O      0.806930000000     0.862130000000     0.327950000000    -0.365362   
O236     O      0.670990000000     0.808200000000     0.319180000000    -0.373434   
O237     O      0.861980000000     0.731100000000     0.323720000000    -0.369156   
O238     O      0.768200000000     0.769970000000     0.258540000000    -0.593435   
O239     O      0.979810000000     0.936400000000     0.972880000000    -0.373254   
O240     O      0.557200000000     0.611820000000     0.978210000000    -0.365377   
O241     O      0.923890000000     0.567770000000     0.986240000000    -0.369185   
O242     O      0.612080000000     0.971870000000     0.983870000000    -0.363692   
O243     O      0.975210000000     0.621190000000     0.991660000000    -0.35412    
O244     O      0.557200000000     0.921920000000     0.984270000000    -0.353125   
O245     O      0.602570000000     0.553250000000     0.969600000000    -0.377083   
O246     O      0.926280000000     0.987960000000     0.977090000000    -0.371794   
O247     O      0.557020000000     0.925940000000     0.572730000000    -0.349576   
O248     O      0.983690000000     0.612110000000     0.582700000000    -0.36013    
O249     O      0.928680000000     0.986720000000     0.580780000000    -0.361599   
O250     O      0.622910000000     0.562960000000     0.560350000000    -0.360911   
O251     O      0.574790000000     0.619720000000     0.561020000000    -0.345166   
O252     O      0.978480000000     0.931490000000     0.578310000000    -0.358788   
O253     O      0.609810000000     0.978030000000     0.574520000000    -0.363056   
O254     O      0.928440000000     0.562610000000     0.579900000000    -0.355278   
O255     O      0.019180000000     0.021510000000     0.046540000000    -0.589047   
O256     O      0.809420000000     0.868110000000     0.736930000000    -0.354254   
O257     O      0.727430000000     0.672680000000     0.729990000000    -0.351351   
O258     O      0.858850000000     0.732000000000     0.726530000000    -0.367893   
O259     O      0.679860000000     0.807460000000     0.721110000000    -0.36584    
O260     O      0.807670000000     0.677920000000     0.726720000000    -0.363915   
O261     O      0.729460000000     0.862620000000     0.727570000000    -0.355476   
O262     O      0.677750000000     0.727700000000     0.722640000000    -0.354112   
O263     O      0.862920000000     0.816720000000     0.734810000000    -0.360193   
O264     O      0.722300000000     0.862100000000     0.822630000000    -0.375533   
O265     O      0.810540000000     0.677210000000     0.823910000000    -0.367833   
O266     O      0.860900000000     0.811310000000     0.824470000000    -0.361433   
O267     O      0.670520000000     0.724870000000     0.813840000000    -0.374395   
O268     O      0.726930000000     0.677030000000     0.823060000000    -0.374701   
O269     O      0.806930000000     0.862130000000     0.827950000000    -0.365359   
O270     O      0.670990000000     0.808200000000     0.819180000000    -0.373433   
O271     O      0.861980000000     0.731100000000     0.823720000000    -0.369155   
O272     O      0.768200000000     0.769970000000     0.758540000000    -0.59343    


