data_structure

_audit_creation_method RASPA-1.0
_audit_creation_date 2023-5-19
_audit_author_name 'Poobodin Mano'

_cell_length_a    40.0632
_cell_length_b    40.2984
_cell_length_c    39.7254
_cell_angle_alpha 90
_cell_angle_beta  90
_cell_angle_gamma 90
_cell_volume      64136

_symmetry_cell_setting          triclinic
_symmetry_space_group_name_Hall 'P 1'
_symmetry_space_group_name_H-M  'P 1'
_symmetry_Int_Tables_number     1

_symmetry_equiv_pos_as_xyz 'x,y,z'

loop_
_atom_site_label
_atom_site_type_symbol
_atom_site_fract_x
_atom_site_fract_y
_atom_site_fract_z
_atom_site_charge
C1       C      0.439420000000     0.435830000000     0.047400000000     0.395473   
C2       C      0.054730000000     0.052500000000     0.047390000000     0.395644   
C3       C      0.052850000000     0.433980000000     0.047320000000     0.395646   
C4       C      0.441300000000     0.054350000000     0.047340000000     0.395381   
C5       C      0.436410000000     0.053120000000     0.458080000000     0.402071   
C6       C      0.057730000000     0.435230000000     0.458060000000     0.402071   
C7       C      0.433650000000     0.435930000000     0.459760000000     0.400222   
C8       C      0.060490000000     0.052400000000     0.459760000000     0.40039    
C9       C      0.305700000000     0.301630000000     0.205280000000     0.39545    
C10      C      0.188450000000     0.186690000000     0.205280000000     0.395314   
C11      C      0.307410000000     0.188740000000     0.205100000000     0.39542    
C12      C      0.186740000000     0.299580000000     0.205080000000     0.395416   
C13      C      0.187810000000     0.304700000000     0.294320000000     0.402233   
C14      C      0.306320000000     0.183640000000     0.294350000000     0.402218   
C15      C      0.305390000000     0.307230000000     0.293010000000     0.400163   
C16      C      0.188760000000     0.181100000000     0.293010000000     0.400357   
C17      C      0.084040000000     0.123390000000     0.097010000000    -0.083794   
C18      C      0.110880000000     0.109540000000     0.114800000000     0.0346362  
C19      C      0.117800000000     0.075720000000     0.110040000000    -0.0835322  
C20      C      0.098720000000     0.056960000000     0.087570000000     0.069646   
C21      C      0.065070000000     0.103770000000     0.075290000000     0.0701665  
C22      C      0.131480000000     0.130230000000     0.138070000000     0.0345988  
C23      C      0.165610000000     0.123810000000     0.142650000000    -0.0835739  
C24      C      0.184320000000     0.143000000000     0.165050000000     0.0697032  
C25      C      0.136860000000     0.175830000000     0.177610000000     0.0700293  
C26      C      0.117270000000     0.156710000000     0.155960000000    -0.083666   
C27      C      0.124380000000     0.071990000000     0.396600000000    -0.0833035  
C28      C      0.117270000000     0.105410000000     0.389600000000     0.0348188  
C29      C      0.091640000000     0.120770000000     0.407930000000    -0.0840716  
C30      C      0.073080000000     0.102700000000     0.431240000000     0.0711717  
C31      C      0.105820000000     0.054830000000     0.420840000000     0.070158   
C32      C      0.136000000000     0.124240000000     0.363260000000     0.0348087  
C33      C      0.169610000000     0.117350000000     0.356090000000    -0.0832929  
C34      C      0.186680000000     0.135970000000     0.331850000000     0.0700905  
C35      C      0.138350000000     0.168360000000     0.321780000000     0.071173   
C36      C      0.120360000000     0.149740000000     0.345110000000    -0.0840504  
C37      C      0.115010000000     0.328370000000     0.155600000000    -0.0833517  
C38      C      0.128900000000     0.355000000000     0.137640000000     0.0345178  
C39      C      0.163030000000     0.361550000000     0.141920000000    -0.0836323  
C40      C      0.181980000000     0.342640000000     0.164310000000     0.0698481  
C41      C      0.134890000000     0.309500000000     0.177310000000     0.0697001  
C42      C      0.108070000000     0.375940000000     0.114750000000     0.0344701  
C43      C      0.081060000000     0.362440000000     0.096900000000    -0.0833491  
C44      C      0.062310000000     0.382380000000     0.075170000000     0.0696929  
C45      C      0.096310000000     0.428800000000     0.087910000000     0.0697359  
C46      C      0.115140000000     0.409770000000     0.110320000000    -0.083579   
C47      C      0.331130000000     0.126760000000     0.141950000000    -0.0836436  
C48      C      0.365270000000     0.133320000000     0.137670000000     0.0344904  
C49      C      0.379150000000     0.159950000000     0.155630000000    -0.0833178  
C50      C      0.359280000000     0.178820000000     0.177340000000     0.0696294  
C51      C      0.312180000000     0.145680000000     0.164330000000     0.0698452  
C52      C      0.386090000000     0.112380000000     0.114780000000     0.0344915  
C53      C      0.379030000000     0.078550000000     0.110340000000    -0.0835809  
C54      C      0.397850000000     0.059520000000     0.087940000000     0.0697626  
C55      C      0.431850000000     0.105940000000     0.075200000000     0.0696961  
C56      C      0.413100000000     0.125880000000     0.096930000000    -0.0833974  
C57      C      0.402490000000     0.367560000000     0.407940000000    -0.0840692  
C58      C      0.376860000000     0.382920000000     0.389610000000     0.0347989  
C59      C      0.369760000000     0.416340000000     0.396610000000    -0.0832767  
C60      C      0.388320000000     0.433500000000     0.420850000000     0.0701382  
C61      C      0.421060000000     0.385640000000     0.431250000000     0.0712124  
C62      C      0.358140000000     0.364100000000     0.363260000000     0.0348021  
C63      C      0.373780000000     0.338600000000     0.345110000000    -0.0840624  
C64      C      0.355790000000     0.319980000000     0.321790000000     0.0711526  
C65      C      0.307460000000     0.352370000000     0.331850000000     0.0701146  
C66      C      0.324530000000     0.370990000000     0.356090000000    -0.0832803  
C67      C      0.334160000000     0.113040000000     0.345460000000    -0.0838844  
C68      C      0.360330000000     0.127270000000     0.363980000000     0.0349534  
C69      C      0.367550000000     0.160920000000     0.358740000000    -0.084124   
C70      C      0.349500000000     0.179190000000     0.335160000000     0.0709064  
C71      C      0.316100000000     0.132280000000     0.322540000000     0.0706247  
C72      C      0.380210000000     0.107290000000     0.388420000000     0.0349132  
C73      C      0.365670000000     0.081370000000     0.406900000000    -0.0838253  
C74      C      0.384850000000     0.063220000000     0.429820000000     0.0705845  
C75      C      0.432320000000     0.096040000000     0.417250000000     0.0709636  
C76      C      0.414120000000     0.114160000000     0.393680000000    -0.0840821  
C77      C      0.128460000000     0.406980000000     0.406860000000    -0.0838286  
C78      C      0.113910000000     0.381060000000     0.388380000000     0.0349097  
C79      C      0.080000000000     0.374200000000     0.393640000000    -0.0840756  
C80      C      0.061810000000     0.392320000000     0.417210000000     0.0709761  
C81      C      0.109280000000     0.425130000000     0.429790000000     0.0705851  
C82      C      0.133790000000     0.361080000000     0.363940000000     0.0349229  
C83      C      0.159970000000     0.375300000000     0.345420000000    -0.0838906  
C84      C      0.178030000000     0.356060000000     0.322500000000     0.0706958  
C85      C      0.144620000000     0.309160000000     0.335120000000     0.0708901  
C86      C      0.126570000000     0.327430000000     0.358690000000    -0.0840736  
C87      C      0.376880000000     0.331610000000     0.155970000000    -0.0837232  
C88      C      0.362670000000     0.358090000000     0.138070000000     0.0346272  
C89      C      0.328550000000     0.364510000000     0.142650000000    -0.0835681  
C90      C      0.309840000000     0.345320000000     0.165050000000     0.0696987  
C91      C      0.357290000000     0.312500000000     0.177610000000     0.0701613  
C92      C      0.383270000000     0.378790000000     0.114810000000     0.0345689  
C93      C      0.376360000000     0.412610000000     0.110050000000    -0.0835226  
C94      C      0.395440000000     0.431370000000     0.087580000000     0.0696585  
C95      C      0.429090000000     0.384560000000     0.075300000000     0.0700847  
C96      C      0.410110000000     0.364940000000     0.097010000000    -0.0836719  
C97      C      0.439420000000     0.435830000000     0.547400000000     0.395453   
C98      C      0.054730000000     0.052500000000     0.547390000000     0.395645   
C99      C      0.052850000000     0.433980000000     0.547320000000     0.395648   
C100     C      0.441300000000     0.054350000000     0.547340000000     0.395364   
C101     C      0.436410000000     0.053120000000     0.958090000000     0.402191   
C102     C      0.057730000000     0.435230000000     0.958060000000     0.402072   
C103     C      0.433650000000     0.435930000000     0.959760000000     0.400203   
C104     C      0.060490000000     0.052400000000     0.959760000000     0.400391   
C105     C      0.305700000000     0.301630000000     0.705280000000     0.395525   
C106     C      0.188450000000     0.186690000000     0.705280000000     0.395242   
C107     C      0.307410000000     0.188740000000     0.705100000000     0.395418   
C108     C      0.186740000000     0.299580000000     0.705080000000     0.395342   
C109     C      0.187810000000     0.304700000000     0.794320000000     0.402233   
C110     C      0.306320000000     0.183640000000     0.794340000000     0.402279   
C111     C      0.305390000000     0.307230000000     0.793010000000     0.400162   
C112     C      0.188760000000     0.181100000000     0.793010000000     0.400357   
C113     C      0.084040000000     0.123390000000     0.597010000000    -0.0837923  
C114     C      0.110880000000     0.109540000000     0.614800000000     0.0346356  
C115     C      0.117800000000     0.075720000000     0.610040000000    -0.0835311  
C116     C      0.098720000000     0.056960000000     0.587570000000     0.0696479  
C117     C      0.065070000000     0.103770000000     0.575290000000     0.0701679  
C118     C      0.131480000000     0.130230000000     0.638070000000     0.0346032  
C119     C      0.165610000000     0.123810000000     0.642650000000    -0.0835838  
C120     C      0.184320000000     0.143000000000     0.665050000000     0.0697296  
C121     C      0.136860000000     0.175830000000     0.677610000000     0.0700231  
C122     C      0.117270000000     0.156710000000     0.655960000000    -0.0836632  
C123     C      0.124380000000     0.071990000000     0.896600000000    -0.0833024  
C124     C      0.117270000000     0.105410000000     0.889600000000     0.0348205  
C125     C      0.091640000000     0.120770000000     0.907930000000    -0.0840694  
C126     C      0.073080000000     0.102700000000     0.931240000000     0.0711752  
C127     C      0.105820000000     0.054830000000     0.920840000000     0.0701608  
C128     C      0.136000000000     0.124240000000     0.863260000000     0.0348117  
C129     C      0.169610000000     0.117350000000     0.856090000000    -0.0832845  
C130     C      0.186680000000     0.135970000000     0.831840000000     0.0701064  
C131     C      0.138350000000     0.168360000000     0.821780000000     0.0711778  
C132     C      0.120360000000     0.149740000000     0.845110000000    -0.0840603  
C133     C      0.115010000000     0.328370000000     0.655600000000    -0.0833475  
C134     C      0.128900000000     0.355000000000     0.637640000000     0.0345241  
C135     C      0.163030000000     0.361550000000     0.641920000000    -0.0836469  
C136     C      0.181980000000     0.342640000000     0.664300000000     0.0698543  
C137     C      0.134890000000     0.309500000000     0.677310000000     0.069691   
C138     C      0.108070000000     0.375940000000     0.614750000000     0.0344692  
C139     C      0.081060000000     0.362440000000     0.596900000000    -0.083347   
C140     C      0.062310000000     0.382380000000     0.575170000000     0.0696946  
C141     C      0.096310000000     0.428800000000     0.587910000000     0.0697377  
C142     C      0.115140000000     0.409770000000     0.610320000000    -0.0835775  
C143     C      0.331130000000     0.126760000000     0.641950000000    -0.0836432  
C144     C      0.365270000000     0.133320000000     0.637670000000     0.0344911  
C145     C      0.379150000000     0.159950000000     0.655630000000    -0.0833178  
C146     C      0.359280000000     0.178820000000     0.677340000000     0.0696297  
C147     C      0.312180000000     0.145680000000     0.664330000000     0.0698457  
C148     C      0.386090000000     0.112380000000     0.614780000000     0.0344921  
C149     C      0.379030000000     0.078550000000     0.610340000000    -0.0835797  
C150     C      0.397850000000     0.059520000000     0.587940000000     0.0697634  
C151     C      0.431850000000     0.105940000000     0.575200000000     0.069698   
C152     C      0.413100000000     0.125880000000     0.596930000000    -0.083396   
C153     C      0.402490000000     0.367560000000     0.907940000000    -0.0840745  
C154     C      0.376860000000     0.382920000000     0.889610000000     0.0348169  
C155     C      0.369760000000     0.416340000000     0.896610000000    -0.0833108  
C156     C      0.388320000000     0.433500000000     0.920850000000     0.0701528  
C157     C      0.421060000000     0.385640000000     0.931250000000     0.0712192  
C158     C      0.358140000000     0.364100000000     0.863260000000     0.0347972  
C159     C      0.373780000000     0.338600000000     0.845110000000    -0.0840591  
C160     C      0.355790000000     0.319980000000     0.821790000000     0.071152   
C161     C      0.307460000000     0.352370000000     0.831850000000     0.0701144  
C162     C      0.324530000000     0.370990000000     0.856090000000    -0.0832761  
C163     C      0.334160000000     0.113040000000     0.845460000000    -0.0838815  
C164     C      0.360330000000     0.127270000000     0.863980000000     0.0349561  
C165     C      0.367550000000     0.160920000000     0.858740000000    -0.0841261  
C166     C      0.349500000000     0.179190000000     0.835160000000     0.0709095  
C167     C      0.316100000000     0.132280000000     0.822540000000     0.0706148  
C168     C      0.380210000000     0.107290000000     0.888420000000     0.0349075  
C169     C      0.365670000000     0.081370000000     0.906900000000    -0.0838205  
C170     C      0.384850000000     0.063220000000     0.929820000000     0.0705805  
C171     C      0.432320000000     0.096040000000     0.917250000000     0.0709339  
C172     C      0.414120000000     0.114160000000     0.893680000000    -0.0840676  
C173     C      0.128460000000     0.406980000000     0.906860000000    -0.0838287  
C174     C      0.113910000000     0.381060000000     0.888380000000     0.0349138  
C175     C      0.080000000000     0.374200000000     0.893640000000    -0.0840792  
C176     C      0.061810000000     0.392320000000     0.917210000000     0.0709866  
C177     C      0.109280000000     0.425130000000     0.929790000000     0.0705885  
C178     C      0.133790000000     0.361080000000     0.863940000000     0.0349183  
C179     C      0.159970000000     0.375300000000     0.845420000000    -0.0838822  
C180     C      0.178030000000     0.356060000000     0.822500000000     0.0706948  
C181     C      0.144620000000     0.309160000000     0.835120000000     0.0708899  
C182     C      0.126570000000     0.327430000000     0.858690000000    -0.0840704  
C183     C      0.376880000000     0.331610000000     0.655970000000    -0.0837232  
C184     C      0.362670000000     0.358090000000     0.638070000000     0.0346285  
C185     C      0.328550000000     0.364510000000     0.642650000000    -0.0835732  
C186     C      0.309840000000     0.345320000000     0.665040000000     0.0696814  
C187     C      0.357290000000     0.312500000000     0.677610000000     0.0701656  
C188     C      0.383270000000     0.378790000000     0.614810000000     0.0345801  
C189     C      0.376360000000     0.412610000000     0.610050000000    -0.0835223  
C190     C      0.395440000000     0.431370000000     0.587580000000     0.0696522  
C191     C      0.429090000000     0.384560000000     0.575300000000     0.0700652  
C192     C      0.410110000000     0.364940000000     0.597020000000    -0.0836651  
C193     C      0.439420000000     0.935830000000     0.047400000000     0.395473   
C194     C      0.054730000000     0.552500000000     0.047390000000     0.395647   
C195     C      0.052850000000     0.933980000000     0.047320000000     0.395642   
C196     C      0.441300000000     0.554350000000     0.047340000000     0.395384   
C197     C      0.436410000000     0.553120000000     0.458080000000     0.402072   
C198     C      0.057730000000     0.935220000000     0.458060000000     0.402083   
C199     C      0.433650000000     0.935930000000     0.459760000000     0.400411   
C200     C      0.060490000000     0.552400000000     0.459760000000     0.400392   
C201     C      0.305700000000     0.801630000000     0.205280000000     0.395473   
C202     C      0.188450000000     0.686690000000     0.205280000000     0.395315   
C203     C      0.307410000000     0.688740000000     0.205100000000     0.395479   
C204     C      0.186740000000     0.799580000000     0.205080000000     0.395438   
C205     C      0.187810000000     0.804700000000     0.294320000000     0.402259   
C206     C      0.306320000000     0.683640000000     0.294350000000     0.402026   
C207     C      0.305390000000     0.807230000000     0.293010000000     0.400184   
C208     C      0.188760000000     0.681100000000     0.293010000000     0.400357   
C209     C      0.084040000000     0.623390000000     0.097010000000    -0.0837965  
C210     C      0.110880000000     0.609540000000     0.114800000000     0.0346382  
C211     C      0.117800000000     0.575720000000     0.110040000000    -0.0835378  
C212     C      0.098720000000     0.556960000000     0.087570000000     0.0696425  
C213     C      0.065070000000     0.603770000000     0.075290000000     0.070165   
C214     C      0.131480000000     0.630230000000     0.138070000000     0.0345855  
C215     C      0.165610000000     0.623810000000     0.142650000000    -0.0835704  
C216     C      0.184320000000     0.643000000000     0.165050000000     0.0697009  
C217     C      0.136860000000     0.675830000000     0.177610000000     0.0700569  
C218     C      0.117270000000     0.656720000000     0.155960000000    -0.0836904  
C219     C      0.124380000000     0.571990000000     0.396600000000    -0.0833078  
C220     C      0.117270000000     0.605410000000     0.389600000000     0.0348169  
C221     C      0.091640000000     0.620770000000     0.407930000000    -0.0840723  
C222     C      0.073080000000     0.602700000000     0.431240000000     0.0711693  
C223     C      0.105820000000     0.554830000000     0.420840000000     0.0701531  
C224     C      0.136000000000     0.624240000000     0.363260000000     0.0348065  
C225     C      0.169610000000     0.617350000000     0.356090000000    -0.0832942  
C226     C      0.186680000000     0.635970000000     0.331850000000     0.0700882  
C227     C      0.138350000000     0.668360000000     0.321780000000     0.071172   
C228     C      0.120360000000     0.649740000000     0.345110000000    -0.0840511  
C229     C      0.115010000000     0.828370000000     0.155600000000    -0.0833526  
C230     C      0.128900000000     0.855000000000     0.137640000000     0.0345167  
C231     C      0.163030000000     0.861550000000     0.141920000000    -0.0836341  
C232     C      0.181980000000     0.842640000000     0.164310000000     0.069848   
C233     C      0.134890000000     0.809500000000     0.177310000000     0.0697004  
C234     C      0.108070000000     0.875940000000     0.114750000000     0.0344683  
C235     C      0.081060000000     0.862440000000     0.096900000000    -0.0833496  
C236     C      0.062310000000     0.882380000000     0.075170000000     0.0696902  
C237     C      0.096310000000     0.928800000000     0.087910000000     0.0697313  
C238     C      0.115140000000     0.909770000000     0.110320000000    -0.0835823  
C239     C      0.331130000000     0.626760000000     0.141950000000    -0.0836293  
C240     C      0.365270000000     0.633320000000     0.137670000000     0.0344985  
C241     C      0.379150000000     0.659950000000     0.155630000000    -0.0833389  
C242     C      0.359280000000     0.678820000000     0.177340000000     0.0696667  
C243     C      0.312180000000     0.645680000000     0.164330000000     0.0697932  
C244     C      0.386090000000     0.612380000000     0.114780000000     0.0344597  
C245     C      0.379030000000     0.578550000000     0.110340000000    -0.0835714  
C246     C      0.397850000000     0.559520000000     0.087940000000     0.0697512  
C247     C      0.431850000000     0.605940000000     0.075200000000     0.0696651  
C248     C      0.413100000000     0.625880000000     0.096930000000    -0.0833249  
C249     C      0.402490000000     0.867560000000     0.407940000000    -0.0840396  
C250     C      0.376860000000     0.882920000000     0.389610000000     0.0347829  
C251     C      0.369760000000     0.916340000000     0.396610000000    -0.0832408  
C252     C      0.388320000000     0.933500000000     0.420850000000     0.0701237  
C253     C      0.421060000000     0.885630000000     0.431250000000     0.0711418  
C254     C      0.358140000000     0.864100000000     0.363260000000     0.0347936  
C255     C      0.373780000000     0.838600000000     0.345110000000    -0.0840203  
C256     C      0.355790000000     0.819970000000     0.321790000000     0.0711027  
C257     C      0.307460000000     0.852370000000     0.331850000000     0.0701119  
C258     C      0.324530000000     0.870990000000     0.356090000000    -0.0832748  
C259     C      0.334160000000     0.613040000000     0.345460000000    -0.083984   
C260     C      0.360330000000     0.627270000000     0.363980000000     0.0349897  
C261     C      0.367550000000     0.660920000000     0.358740000000    -0.0841421  
C262     C      0.349500000000     0.679190000000     0.335160000000     0.0709076  
C263     C      0.316100000000     0.632290000000     0.322540000000     0.0707166  
C264     C      0.380210000000     0.607290000000     0.388420000000     0.0348951  
C265     C      0.365670000000     0.581370000000     0.406900000000    -0.0838218  
C266     C      0.384850000000     0.563220000000     0.429820000000     0.0705772  
C267     C      0.432320000000     0.596040000000     0.417250000000     0.0709574  
C268     C      0.414120000000     0.614160000000     0.393680000000    -0.0840763  
C269     C      0.128460000000     0.906980000000     0.406860000000    -0.0838465  
C270     C      0.113910000000     0.881060000000     0.388380000000     0.0349376  
C271     C      0.080000000000     0.874200000000     0.393640000000    -0.0841045  
C272     C      0.061810000000     0.892310000000     0.417210000000     0.0709057  
C273     C      0.109280000000     0.925130000000     0.429790000000     0.0706257  
C274     C      0.133790000000     0.861090000000     0.363940000000     0.0348738  
C275     C      0.159970000000     0.875300000000     0.345420000000    -0.083872   
C276     C      0.178030000000     0.856060000000     0.322500000000     0.0706877  
C277     C      0.144620000000     0.809160000000     0.335120000000     0.0708617  
C278     C      0.126570000000     0.827430000000     0.358690000000    -0.084005   
C279     C      0.376880000000     0.831610000000     0.155970000000    -0.0837216  
C280     C      0.362670000000     0.858090000000     0.138070000000     0.0346142  
C281     C      0.328550000000     0.864510000000     0.142650000000    -0.0835649  
C282     C      0.309840000000     0.845320000000     0.165050000000     0.0696968  
C283     C      0.357290000000     0.812500000000     0.177610000000     0.0701652  
C284     C      0.383270000000     0.878790000000     0.114810000000     0.0345986  
C285     C      0.376360000000     0.912610000000     0.110050000000    -0.0835401  
C286     C      0.395440000000     0.931370000000     0.087580000000     0.0696625  
C287     C      0.429090000000     0.884560000000     0.075300000000     0.0701127  
C288     C      0.410110000000     0.864940000000     0.097010000000    -0.0837461  
C289     C      0.439420000000     0.935830000000     0.547400000000     0.395452   
C290     C      0.054730000000     0.552500000000     0.547390000000     0.395648   
C291     C      0.052850000000     0.933980000000     0.547320000000     0.395644   
C292     C      0.441300000000     0.554350000000     0.547340000000     0.395367   
C293     C      0.436410000000     0.553120000000     0.958090000000     0.402192   
C294     C      0.057730000000     0.935220000000     0.958060000000     0.402084   
C295     C      0.433650000000     0.935930000000     0.959760000000     0.400393   
C296     C      0.060490000000     0.552400000000     0.959760000000     0.400393   
C297     C      0.305700000000     0.801630000000     0.705280000000     0.395548   
C298     C      0.188450000000     0.686690000000     0.705280000000     0.395243   
C299     C      0.307410000000     0.688740000000     0.705100000000     0.395476   
C300     C      0.186740000000     0.799580000000     0.705080000000     0.395364   
C301     C      0.187810000000     0.804700000000     0.794320000000     0.402259   
C302     C      0.306320000000     0.683640000000     0.794340000000     0.402087   
C303     C      0.305390000000     0.807230000000     0.793010000000     0.400183   
C304     C      0.188760000000     0.681100000000     0.793010000000     0.400358   
C305     C      0.084040000000     0.623390000000     0.597010000000    -0.0837948  
C306     C      0.110880000000     0.609540000000     0.614800000000     0.0346376  
C307     C      0.117800000000     0.575720000000     0.610040000000    -0.0835368  
C308     C      0.098720000000     0.556960000000     0.587570000000     0.0696443  
C309     C      0.065070000000     0.603770000000     0.575290000000     0.0701664  
C310     C      0.131480000000     0.630230000000     0.638070000000     0.0345899  
C311     C      0.165610000000     0.623810000000     0.642650000000    -0.0835803  
C312     C      0.184320000000     0.643000000000     0.665050000000     0.0697273  
C313     C      0.136860000000     0.675830000000     0.677610000000     0.0700508  
C314     C      0.117270000000     0.656720000000     0.655960000000    -0.0836876  
C315     C      0.124380000000     0.571990000000     0.896600000000    -0.0833067  
C316     C      0.117270000000     0.605410000000     0.889600000000     0.0348185  
C317     C      0.091640000000     0.620770000000     0.907930000000    -0.08407    
C318     C      0.073080000000     0.602700000000     0.931240000000     0.0711728  
C319     C      0.105820000000     0.554830000000     0.920840000000     0.0701559  
C320     C      0.136000000000     0.624240000000     0.863260000000     0.0348096  
C321     C      0.169610000000     0.617350000000     0.856090000000    -0.0832857  
C322     C      0.186680000000     0.635970000000     0.831840000000     0.0701041  
C323     C      0.138350000000     0.668360000000     0.821780000000     0.0711768  
C324     C      0.120360000000     0.649740000000     0.845110000000    -0.084061   
C325     C      0.115010000000     0.828370000000     0.655600000000    -0.0833484  
C326     C      0.128900000000     0.855000000000     0.637640000000     0.0345231  
C327     C      0.163030000000     0.861550000000     0.641920000000    -0.0836487  
C328     C      0.181980000000     0.842640000000     0.664300000000     0.0698542  
C329     C      0.134890000000     0.809500000000     0.677310000000     0.0696913  
C330     C      0.108070000000     0.875940000000     0.614750000000     0.0344674  
C331     C      0.081060000000     0.862440000000     0.596900000000    -0.0833475  
C332     C      0.062310000000     0.882380000000     0.575170000000     0.069692   
C333     C      0.096310000000     0.928800000000     0.587910000000     0.0697331  
C334     C      0.115140000000     0.909770000000     0.610320000000    -0.0835808  
C335     C      0.331130000000     0.626760000000     0.641950000000    -0.0836289  
C336     C      0.365270000000     0.633320000000     0.637670000000     0.0344992  
C337     C      0.379150000000     0.659950000000     0.655630000000    -0.0833389  
C338     C      0.359280000000     0.678820000000     0.677340000000     0.069667   
C339     C      0.312180000000     0.645680000000     0.664330000000     0.0697937  
C340     C      0.386090000000     0.612380000000     0.614780000000     0.0344603  
C341     C      0.379030000000     0.578550000000     0.610340000000    -0.0835702  
C342     C      0.397850000000     0.559520000000     0.587940000000     0.069752   
C343     C      0.431850000000     0.605940000000     0.575200000000     0.069667   
C344     C      0.413100000000     0.625880000000     0.596930000000    -0.0833236  
C345     C      0.402490000000     0.867560000000     0.907940000000    -0.084045   
C346     C      0.376860000000     0.882920000000     0.889610000000     0.0348008  
C347     C      0.369760000000     0.916340000000     0.896610000000    -0.0832749  
C348     C      0.388320000000     0.933500000000     0.920850000000     0.0701383  
C349     C      0.421060000000     0.885630000000     0.931250000000     0.0711486  
C350     C      0.358140000000     0.864100000000     0.863260000000     0.0347887  
C351     C      0.373780000000     0.838600000000     0.845110000000    -0.084017   
C352     C      0.355790000000     0.819970000000     0.821790000000     0.0711021  
C353     C      0.307460000000     0.852370000000     0.831850000000     0.0701116  
C354     C      0.324530000000     0.870990000000     0.856090000000    -0.0832707  
C355     C      0.334160000000     0.613040000000     0.845460000000    -0.0839811  
C356     C      0.360330000000     0.627270000000     0.863980000000     0.0349923  
C357     C      0.367550000000     0.660920000000     0.858740000000    -0.0841441  
C358     C      0.349500000000     0.679190000000     0.835160000000     0.0709107  
C359     C      0.316100000000     0.632290000000     0.822540000000     0.0707066  
C360     C      0.380210000000     0.607290000000     0.888420000000     0.0348894  
C361     C      0.365670000000     0.581370000000     0.906900000000    -0.0838171  
C362     C      0.384850000000     0.563220000000     0.929820000000     0.0705731  
C363     C      0.432320000000     0.596040000000     0.917250000000     0.0709277  
C364     C      0.414120000000     0.614160000000     0.893680000000    -0.0840619  
C365     C      0.128460000000     0.906980000000     0.906860000000    -0.0838466  
C366     C      0.113910000000     0.881060000000     0.888380000000     0.0349417  
C367     C      0.080000000000     0.874200000000     0.893640000000    -0.0841081  
C368     C      0.061810000000     0.892310000000     0.917210000000     0.0709162  
C369     C      0.109280000000     0.925130000000     0.929790000000     0.070629   
C370     C      0.133790000000     0.861090000000     0.863940000000     0.0348693  
C371     C      0.159970000000     0.875300000000     0.845420000000    -0.0838636  
C372     C      0.178030000000     0.856060000000     0.822500000000     0.0706867  
C373     C      0.144620000000     0.809160000000     0.835120000000     0.0708615  
C374     C      0.126570000000     0.827430000000     0.858690000000    -0.0840018  
C375     C      0.376880000000     0.831610000000     0.655970000000    -0.0837215  
C376     C      0.362670000000     0.858090000000     0.638070000000     0.0346155  
C377     C      0.328550000000     0.864510000000     0.642650000000    -0.0835699  
C378     C      0.309840000000     0.845320000000     0.665040000000     0.0696795  
C379     C      0.357290000000     0.812500000000     0.677610000000     0.0701696  
C380     C      0.383270000000     0.878790000000     0.614810000000     0.0346099  
C381     C      0.376360000000     0.912610000000     0.610050000000    -0.0835398  
C382     C      0.395440000000     0.931370000000     0.587580000000     0.0696562  
C383     C      0.429090000000     0.884560000000     0.575300000000     0.0700932  
C384     C      0.410110000000     0.864940000000     0.597020000000    -0.0837393  
C385     C      0.939420000000     0.435830000000     0.047400000000     0.395471   
C386     C      0.554730000000     0.052500000000     0.047390000000     0.395644   
C387     C      0.552850000000     0.433980000000     0.047320000000     0.395539   
C388     C      0.941300000000     0.054350000000     0.047340000000     0.395376   
C389     C      0.936410000000     0.053120000000     0.458080000000     0.402011   
C390     C      0.557730000000     0.435230000000     0.458060000000     0.402072   
C391     C      0.933650000000     0.435930000000     0.459760000000     0.400219   
C392     C      0.560490000000     0.052400000000     0.459760000000     0.400391   
C393     C      0.805700000000     0.301630000000     0.205280000000     0.39525    
C394     C      0.688450000000     0.186690000000     0.205280000000     0.395314   
C395     C      0.807410000000     0.188740000000     0.205100000000     0.395424   
C396     C      0.686740000000     0.299580000000     0.205080000000     0.395608   
C397     C      0.687810000000     0.304700000000     0.294320000000     0.402233   
C398     C      0.806320000000     0.183640000000     0.294350000000     0.402217   
C399     C      0.805390000000     0.307230000000     0.293010000000     0.399966   
C400     C      0.688760000000     0.181100000000     0.293010000000     0.400357   
C401     C      0.584050000000     0.123390000000     0.097010000000    -0.0837454  
C402     C      0.610890000000     0.109540000000     0.114800000000     0.0346155  
C403     C      0.617800000000     0.075720000000     0.110040000000    -0.0835232  
C404     C      0.598720000000     0.056960000000     0.087570000000     0.0696378  
C405     C      0.565070000000     0.103770000000     0.075290000000     0.0701231  
C406     C      0.631480000000     0.130230000000     0.138070000000     0.0346014  
C407     C      0.665610000000     0.123810000000     0.142650000000    -0.0835761  
C408     C      0.684320000000     0.143000000000     0.165050000000     0.0697038  
C409     C      0.636860000000     0.175830000000     0.177610000000     0.0700278  
C410     C      0.617270000000     0.156710000000     0.155960000000    -0.0836679  
C411     C      0.624380000000     0.071990000000     0.396600000000    -0.0833046  
C412     C      0.617270000000     0.105410000000     0.389600000000     0.0348171  
C413     C      0.591640000000     0.120770000000     0.407930000000    -0.084075   
C414     C      0.573080000000     0.102700000000     0.431240000000     0.0711675  
C415     C      0.605820000000     0.054830000000     0.420840000000     0.0701551  
C416     C      0.636000000000     0.124240000000     0.363260000000     0.0348068  
C417     C      0.669610000000     0.117350000000     0.356090000000    -0.0832927  
C418     C      0.686680000000     0.135970000000     0.331850000000     0.0700901  
C419     C      0.638350000000     0.168360000000     0.321780000000     0.0711711  
C420     C      0.620360000000     0.149740000000     0.345110000000    -0.0840516  
C421     C      0.615010000000     0.328370000000     0.155600000000    -0.0833297  
C422     C      0.628900000000     0.355000000000     0.137640000000     0.0345105  
C423     C      0.663030000000     0.361550000000     0.141920000000    -0.0836289  
C424     C      0.681980000000     0.342640000000     0.164310000000     0.0698542  
C425     C      0.634880000000     0.309500000000     0.177310000000     0.0696346  
C426     C      0.608070000000     0.375940000000     0.114750000000     0.0344688  
C427     C      0.581060000000     0.362440000000     0.096900000000    -0.0833512  
C428     C      0.562310000000     0.382380000000     0.075170000000     0.0696833  
C429     C      0.596310000000     0.428800000000     0.087910000000     0.0697293  
C430     C      0.615140000000     0.409770000000     0.110320000000    -0.0835786  
C431     C      0.831130000000     0.126760000000     0.141950000000    -0.0836377  
C432     C      0.865270000000     0.133320000000     0.137670000000     0.0344651  
C433     C      0.879150000000     0.159950000000     0.155630000000    -0.0832731  
C434     C      0.859270000000     0.178820000000     0.177340000000     0.0696695  
C435     C      0.812180000000     0.145680000000     0.164330000000     0.0698439  
C436     C      0.886090000000     0.112380000000     0.114780000000     0.0345095  
C437     C      0.879020000000     0.078550000000     0.110340000000    -0.083618   
C438     C      0.897850000000     0.059520000000     0.087940000000     0.0697531  
C439     C      0.931850000000     0.105940000000     0.075200000000     0.0696944  
C440     C      0.913100000000     0.125880000000     0.096930000000    -0.0834106  
C441     C      0.902490000000     0.367560000000     0.407940000000    -0.0840992  
C442     C      0.876870000000     0.382920000000     0.389610000000     0.0348273  
C443     C      0.869760000000     0.416340000000     0.396610000000    -0.0832919  
C444     C      0.888320000000     0.433500000000     0.420850000000     0.0701405  
C445     C      0.921060000000     0.385640000000     0.431250000000     0.0712177  
C446     C      0.858140000000     0.364100000000     0.363260000000     0.0347886  
C447     C      0.873780000000     0.338600000000     0.345110000000    -0.0840563  
C448     C      0.855790000000     0.319980000000     0.321790000000     0.071142   
C449     C      0.807460000000     0.352370000000     0.331850000000     0.0700994  
C450     C      0.824530000000     0.370990000000     0.356090000000    -0.0832696  
C451     C      0.834160000000     0.113040000000     0.345460000000    -0.083888   
C452     C      0.860330000000     0.127270000000     0.363980000000     0.0349596  
C453     C      0.867550000000     0.160920000000     0.358740000000    -0.0841286  
C454     C      0.849500000000     0.179190000000     0.335160000000     0.0709059  
C455     C      0.816100000000     0.132280000000     0.322540000000     0.0706252  
C456     C      0.880210000000     0.107290000000     0.388420000000     0.0348936  
C457     C      0.865670000000     0.081370000000     0.406900000000    -0.0838098  
C458     C      0.884860000000     0.063220000000     0.429820000000     0.0706964  
C459     C      0.932320000000     0.096040000000     0.417250000000     0.0709035  
C460     C      0.914120000000     0.114160000000     0.393680000000    -0.0840588  
C461     C      0.628460000000     0.406980000000     0.406860000000    -0.0838289  
C462     C      0.613910000000     0.381060000000     0.388380000000     0.0349081  
C463     C      0.580000000000     0.374200000000     0.393640000000    -0.0840795  
C464     C      0.561810000000     0.392320000000     0.417210000000     0.0709719  
C465     C      0.609280000000     0.425130000000     0.429790000000     0.0705833  
C466     C      0.633790000000     0.361080000000     0.363940000000     0.0349213  
C467     C      0.659970000000     0.375300000000     0.345420000000    -0.083891   
C468     C      0.678030000000     0.356060000000     0.322500000000     0.0706958  
C469     C      0.644620000000     0.309160000000     0.335120000000     0.0708885  
C470     C      0.626570000000     0.327430000000     0.358690000000    -0.0840746  
C471     C      0.876880000000     0.331610000000     0.155970000000    -0.0837075  
C472     C      0.862680000000     0.358090000000     0.138070000000     0.0345867  
C473     C      0.828550000000     0.364510000000     0.142650000000    -0.0835283  
C474     C      0.809840000000     0.345320000000     0.165050000000     0.0696721  
C475     C      0.857290000000     0.312500000000     0.177610000000     0.0701472  
C476     C      0.883280000000     0.378790000000     0.114810000000     0.0345954  
C477     C      0.876360000000     0.412610000000     0.110050000000    -0.0835374  
C478     C      0.895440000000     0.431370000000     0.087580000000     0.0696617  
C479     C      0.929090000000     0.384560000000     0.075300000000     0.0701201  
C480     C      0.910120000000     0.364940000000     0.097010000000    -0.0837319  
C481     C      0.939420000000     0.435830000000     0.547400000000     0.39545    
C482     C      0.554730000000     0.052500000000     0.547390000000     0.395645   
C483     C      0.552850000000     0.433980000000     0.547320000000     0.395541   
C484     C      0.941300000000     0.054350000000     0.547340000000     0.395359   
C485     C      0.936410000000     0.053120000000     0.958090000000     0.40213    
C486     C      0.557730000000     0.435230000000     0.958060000000     0.402073   
C487     C      0.933650000000     0.435930000000     0.959760000000     0.4002     
C488     C      0.560490000000     0.052400000000     0.959760000000     0.400392   
C489     C      0.805700000000     0.301630000000     0.705280000000     0.395325   
C490     C      0.688450000000     0.186690000000     0.705280000000     0.395242   
C491     C      0.807410000000     0.188740000000     0.705100000000     0.395421   
C492     C      0.686740000000     0.299580000000     0.705080000000     0.395535   
C493     C      0.687810000000     0.304700000000     0.794320000000     0.402233   
C494     C      0.806320000000     0.183640000000     0.794340000000     0.402278   
C495     C      0.805390000000     0.307230000000     0.793010000000     0.399965   
C496     C      0.688760000000     0.181100000000     0.793010000000     0.400358   
C497     C      0.584050000000     0.123390000000     0.597010000000    -0.0837437  
C498     C      0.610890000000     0.109540000000     0.614800000000     0.0346149  
C499     C      0.617800000000     0.075720000000     0.610040000000    -0.0835221  
C500     C      0.598720000000     0.056960000000     0.587570000000     0.0696397  
C501     C      0.565070000000     0.103770000000     0.575290000000     0.0701245  
C502     C      0.631480000000     0.130230000000     0.638070000000     0.0346058  
C503     C      0.665610000000     0.123810000000     0.642650000000    -0.083586   
C504     C      0.684320000000     0.143000000000     0.665050000000     0.0697302  
C505     C      0.636860000000     0.175830000000     0.677610000000     0.0700216  
C506     C      0.617270000000     0.156710000000     0.655960000000    -0.0836652  
C507     C      0.624380000000     0.071990000000     0.896600000000    -0.0833036  
C508     C      0.617270000000     0.105410000000     0.889600000000     0.0348187  
C509     C      0.591640000000     0.120770000000     0.907930000000    -0.0840727  
C510     C      0.573080000000     0.102700000000     0.931240000000     0.071171   
C511     C      0.605820000000     0.054830000000     0.920840000000     0.070158   
C512     C      0.636000000000     0.124240000000     0.863260000000     0.0348099  
C513     C      0.669610000000     0.117350000000     0.856090000000    -0.0832843  
C514     C      0.686680000000     0.135970000000     0.831840000000     0.070106   
C515     C      0.638350000000     0.168360000000     0.821780000000     0.0711759  
C516     C      0.620360000000     0.149740000000     0.845110000000    -0.0840615  
C517     C      0.615010000000     0.328370000000     0.655600000000    -0.0833254  
C518     C      0.628900000000     0.355000000000     0.637640000000     0.0345169  
C519     C      0.663030000000     0.361550000000     0.641920000000    -0.0836434  
C520     C      0.681980000000     0.342640000000     0.664300000000     0.0698604  
C521     C      0.634880000000     0.309500000000     0.677310000000     0.0696255  
C522     C      0.608070000000     0.375940000000     0.614750000000     0.0344678  
C523     C      0.581060000000     0.362440000000     0.596900000000    -0.0833492  
C524     C      0.562310000000     0.382380000000     0.575170000000     0.069685   
C525     C      0.596310000000     0.428800000000     0.587910000000     0.0697311  
C526     C      0.615140000000     0.409770000000     0.610320000000    -0.0835771  
C527     C      0.831130000000     0.126760000000     0.641950000000    -0.0836374  
C528     C      0.865270000000     0.133320000000     0.637670000000     0.0344658  
C529     C      0.879150000000     0.159950000000     0.655630000000    -0.0832732  
C530     C      0.859270000000     0.178820000000     0.677340000000     0.0696698  
C531     C      0.812180000000     0.145680000000     0.664330000000     0.0698444  
C532     C      0.886090000000     0.112380000000     0.614780000000     0.0345101  
C533     C      0.879020000000     0.078550000000     0.610340000000    -0.0836168  
C534     C      0.897850000000     0.059520000000     0.587940000000     0.0697539  
C535     C      0.931850000000     0.105940000000     0.575200000000     0.0696964  
C536     C      0.913100000000     0.125880000000     0.596930000000    -0.0834093  
C537     C      0.902490000000     0.367560000000     0.907940000000    -0.0841046  
C538     C      0.876870000000     0.382920000000     0.889610000000     0.0348452  
C539     C      0.869760000000     0.416340000000     0.896610000000    -0.083326   
C540     C      0.888320000000     0.433500000000     0.920850000000     0.0701552  
C541     C      0.921060000000     0.385640000000     0.931250000000     0.0712245  
C542     C      0.858140000000     0.364100000000     0.863260000000     0.0347837  
C543     C      0.873780000000     0.338600000000     0.845110000000    -0.084053   
C544     C      0.855790000000     0.319980000000     0.821790000000     0.0711414  
C545     C      0.807460000000     0.352370000000     0.831850000000     0.0700991  
C546     C      0.824530000000     0.370990000000     0.856090000000    -0.0832655  
C547     C      0.834160000000     0.113040000000     0.845460000000    -0.0838851  
C548     C      0.860330000000     0.127270000000     0.863980000000     0.0349622  
C549     C      0.867550000000     0.160920000000     0.858740000000    -0.0841306  
C550     C      0.849500000000     0.179190000000     0.835160000000     0.070909   
C551     C      0.816100000000     0.132280000000     0.822540000000     0.0706152  
C552     C      0.880210000000     0.107290000000     0.888420000000     0.034888   
C553     C      0.865670000000     0.081370000000     0.906900000000    -0.083805   
C554     C      0.884860000000     0.063220000000     0.929820000000     0.0706924  
C555     C      0.932320000000     0.096040000000     0.917250000000     0.0708739  
C556     C      0.914120000000     0.114160000000     0.893680000000    -0.0840444  
C557     C      0.628460000000     0.406980000000     0.906860000000    -0.083829   
C558     C      0.613910000000     0.381060000000     0.888380000000     0.0349122  
C559     C      0.580000000000     0.374200000000     0.893640000000    -0.0840832  
C560     C      0.561810000000     0.392320000000     0.917210000000     0.0709824  
C561     C      0.609280000000     0.425130000000     0.929790000000     0.0705867  
C562     C      0.633790000000     0.361080000000     0.863940000000     0.0349167  
C563     C      0.659970000000     0.375300000000     0.845420000000    -0.0838826  
C564     C      0.678030000000     0.356060000000     0.822500000000     0.0706948  
C565     C      0.644620000000     0.309160000000     0.835120000000     0.0708882  
C566     C      0.626570000000     0.327430000000     0.858690000000    -0.0840714  
C567     C      0.876880000000     0.331610000000     0.655970000000    -0.0837075  
C568     C      0.862680000000     0.358090000000     0.638070000000     0.0345881  
C569     C      0.828550000000     0.364510000000     0.642650000000    -0.0835333  
C570     C      0.809840000000     0.345320000000     0.665040000000     0.0696548  
C571     C      0.857290000000     0.312500000000     0.677610000000     0.0701515  
C572     C      0.883280000000     0.378790000000     0.614810000000     0.0346067  
C573     C      0.876360000000     0.412610000000     0.610050000000    -0.0835371  
C574     C      0.895440000000     0.431370000000     0.587580000000     0.0696554  
C575     C      0.929090000000     0.384560000000     0.575300000000     0.0701006  
C576     C      0.910120000000     0.364940000000     0.597020000000    -0.083725   
C577     C      0.939420000000     0.935830000000     0.047400000000     0.39547    
C578     C      0.554730000000     0.552500000000     0.047390000000     0.395647   
C579     C      0.552850000000     0.933980000000     0.047320000000     0.395535   
C580     C      0.941300000000     0.554350000000     0.047340000000     0.395379   
C581     C      0.936410000000     0.553120000000     0.458080000000     0.402011   
C582     C      0.557730000000     0.935220000000     0.458060000000     0.402085   
C583     C      0.933650000000     0.935930000000     0.459760000000     0.400408   
C584     C      0.560490000000     0.552400000000     0.459760000000     0.400393   
C585     C      0.805700000000     0.801630000000     0.205280000000     0.395274   
C586     C      0.688450000000     0.686690000000     0.205280000000     0.395315   
C587     C      0.807410000000     0.688740000000     0.205100000000     0.395482   
C588     C      0.686740000000     0.799580000000     0.205080000000     0.39563    
C589     C      0.687810000000     0.804700000000     0.294320000000     0.402259   
C590     C      0.806320000000     0.683640000000     0.294350000000     0.402026   
C591     C      0.805390000000     0.807230000000     0.293010000000     0.399987   
C592     C      0.688760000000     0.681100000000     0.293010000000     0.400358   
C593     C      0.584050000000     0.623390000000     0.097010000000    -0.0837479  
C594     C      0.610890000000     0.609540000000     0.114800000000     0.0346175  
C595     C      0.617800000000     0.575720000000     0.110040000000    -0.0835288  
C596     C      0.598720000000     0.556960000000     0.087570000000     0.0696342  
C597     C      0.565070000000     0.603770000000     0.075290000000     0.0701217  
C598     C      0.631480000000     0.630230000000     0.138070000000     0.0345881  
C599     C      0.665610000000     0.623810000000     0.142650000000    -0.0835726  
C600     C      0.684320000000     0.643000000000     0.165050000000     0.0697015  
C601     C      0.636860000000     0.675830000000     0.177610000000     0.0700555  
C602     C      0.617270000000     0.656720000000     0.155960000000    -0.0836923  
C603     C      0.624380000000     0.571990000000     0.396600000000    -0.0833089  
C604     C      0.617270000000     0.605410000000     0.389600000000     0.0348151  
C605     C      0.591640000000     0.620770000000     0.407930000000    -0.0840757  
C606     C      0.573080000000     0.602700000000     0.431240000000     0.0711651  
C607     C      0.605820000000     0.554830000000     0.420840000000     0.0701502  
C608     C      0.636000000000     0.624240000000     0.363260000000     0.0348047  
C609     C      0.669610000000     0.617350000000     0.356090000000    -0.083294   
C610     C      0.686680000000     0.635970000000     0.331850000000     0.0700878  
C611     C      0.638350000000     0.668360000000     0.321780000000     0.07117    
C612     C      0.620360000000     0.649740000000     0.345110000000    -0.0840523  
C613     C      0.615010000000     0.828370000000     0.155600000000    -0.0833305  
C614     C      0.628900000000     0.855000000000     0.137640000000     0.0345095  
C615     C      0.663030000000     0.861550000000     0.141920000000    -0.0836307  
C616     C      0.681980000000     0.842640000000     0.164310000000     0.0698541  
C617     C      0.634880000000     0.809500000000     0.177310000000     0.0696349  
C618     C      0.608070000000     0.875940000000     0.114750000000     0.034467   
C619     C      0.581060000000     0.862440000000     0.096900000000    -0.0833517  
C620     C      0.562310000000     0.882380000000     0.075170000000     0.0696806  
C621     C      0.596310000000     0.928800000000     0.087910000000     0.0697246  
C622     C      0.615140000000     0.909770000000     0.110320000000    -0.0835818  
C623     C      0.831130000000     0.626760000000     0.141950000000    -0.0836234  
C624     C      0.865270000000     0.633320000000     0.137670000000     0.0344733  
C625     C      0.879150000000     0.659950000000     0.155630000000    -0.0832942  
C626     C      0.859270000000     0.678820000000     0.177340000000     0.0697068  
C627     C      0.812180000000     0.645680000000     0.164330000000     0.0697919  
C628     C      0.886090000000     0.612380000000     0.114780000000     0.0344776  
C629     C      0.879020000000     0.578550000000     0.110340000000    -0.0836085  
C630     C      0.897850000000     0.559520000000     0.087940000000     0.0697418  
C631     C      0.931850000000     0.605940000000     0.075200000000     0.0696634  
C632     C      0.913100000000     0.625880000000     0.096930000000    -0.0833382  
C633     C      0.902490000000     0.867560000000     0.407940000000    -0.0840697  
C634     C      0.876870000000     0.882920000000     0.389610000000     0.0348112  
C635     C      0.869760000000     0.916340000000     0.396610000000    -0.0832559  
C636     C      0.888320000000     0.933500000000     0.420850000000     0.070126   
C637     C      0.921060000000     0.885630000000     0.431250000000     0.0711472  
C638     C      0.858140000000     0.864100000000     0.363260000000     0.0347801  
C639     C      0.873780000000     0.838600000000     0.345110000000    -0.0840143  
C640     C      0.855790000000     0.819970000000     0.321790000000     0.071092   
C641     C      0.807460000000     0.852370000000     0.331850000000     0.0700966  
C642     C      0.824530000000     0.870990000000     0.356090000000    -0.0832641  
C643     C      0.834160000000     0.613040000000     0.345460000000    -0.0839876  
C644     C      0.860330000000     0.627270000000     0.363980000000     0.0349958  
C645     C      0.867550000000     0.660920000000     0.358740000000    -0.0841466  
C646     C      0.849500000000     0.679190000000     0.335160000000     0.0709072  
C647     C      0.816100000000     0.632290000000     0.322540000000     0.070717   
C648     C      0.880210000000     0.607290000000     0.388420000000     0.0348756  
C649     C      0.865670000000     0.581370000000     0.406900000000    -0.0838063  
C650     C      0.884860000000     0.563220000000     0.429820000000     0.0706891  
C651     C      0.932320000000     0.596040000000     0.417250000000     0.0708973  
C652     C      0.914120000000     0.614160000000     0.393680000000    -0.0840531  
C653     C      0.628460000000     0.906980000000     0.406860000000    -0.0838468  
C654     C      0.613910000000     0.881060000000     0.388380000000     0.0349361  
C655     C      0.580000000000     0.874200000000     0.393640000000    -0.0841084  
C656     C      0.561810000000     0.892310000000     0.417210000000     0.0709015  
C657     C      0.609280000000     0.925130000000     0.429790000000     0.0706239  
C658     C      0.633790000000     0.861090000000     0.363940000000     0.0348722  
C659     C      0.659970000000     0.875300000000     0.345420000000    -0.0838725  
C660     C      0.678030000000     0.856060000000     0.322500000000     0.0706878  
C661     C      0.644620000000     0.809160000000     0.335120000000     0.0708601  
C662     C      0.626570000000     0.827430000000     0.358690000000    -0.0840059  
C663     C      0.876880000000     0.831610000000     0.155970000000    -0.0837059  
C664     C      0.862680000000     0.858090000000     0.138070000000     0.0345737  
C665     C      0.828550000000     0.864510000000     0.142650000000    -0.083525   
C666     C      0.809840000000     0.845320000000     0.165050000000     0.0696701  
C667     C      0.857290000000     0.812500000000     0.177610000000     0.0701511  
C668     C      0.883280000000     0.878790000000     0.114810000000     0.0346252  
C669     C      0.876360000000     0.912610000000     0.110050000000    -0.0835549  
C670     C      0.895440000000     0.931370000000     0.087580000000     0.0696657  
C671     C      0.929090000000     0.884560000000     0.075300000000     0.0701481  
C672     C      0.910120000000     0.864940000000     0.097010000000    -0.0838061  
C673     C      0.939420000000     0.935830000000     0.547400000000     0.39545    
C674     C      0.554730000000     0.552500000000     0.547390000000     0.395648   
C675     C      0.552850000000     0.933980000000     0.547320000000     0.395537   
C676     C      0.941300000000     0.554350000000     0.547340000000     0.395362   
C677     C      0.936410000000     0.553120000000     0.958090000000     0.402131   
C678     C      0.557730000000     0.935220000000     0.958060000000     0.402086   
C679     C      0.933650000000     0.935930000000     0.959760000000     0.40039    
C680     C      0.560490000000     0.552400000000     0.959760000000     0.400394   
C681     C      0.805700000000     0.801630000000     0.705280000000     0.395348   
C682     C      0.688450000000     0.686690000000     0.705280000000     0.395243   
C683     C      0.807410000000     0.688740000000     0.705100000000     0.395479   
C684     C      0.686740000000     0.799580000000     0.705080000000     0.395557   
C685     C      0.687810000000     0.804700000000     0.794320000000     0.402259   
C686     C      0.806320000000     0.683640000000     0.794340000000     0.402086   
C687     C      0.805390000000     0.807230000000     0.793010000000     0.399985   
C688     C      0.688760000000     0.681100000000     0.793010000000     0.400358   
C689     C      0.584050000000     0.623390000000     0.597010000000    -0.0837462  
C690     C      0.610890000000     0.609540000000     0.614800000000     0.0346169  
C691     C      0.617800000000     0.575720000000     0.610040000000    -0.0835278  
C692     C      0.598720000000     0.556960000000     0.587570000000     0.0696361  
C693     C      0.565070000000     0.603770000000     0.575290000000     0.0701231  
C694     C      0.631480000000     0.630230000000     0.638070000000     0.0345925  
C695     C      0.665610000000     0.623810000000     0.642650000000    -0.0835825  
C696     C      0.684320000000     0.643000000000     0.665050000000     0.0697279  
C697     C      0.636860000000     0.675830000000     0.677610000000     0.0700493  
C698     C      0.617270000000     0.656720000000     0.655960000000    -0.0836896  
C699     C      0.624380000000     0.571990000000     0.896600000000    -0.0833078  
C700     C      0.617270000000     0.605410000000     0.889600000000     0.0348168  
C701     C      0.591640000000     0.620770000000     0.907930000000    -0.0840734  
C702     C      0.573080000000     0.602700000000     0.931240000000     0.0711686  
C703     C      0.605820000000     0.554830000000     0.920840000000     0.0701531  
C704     C      0.636000000000     0.624240000000     0.863260000000     0.0348077  
C705     C      0.669610000000     0.617350000000     0.856090000000    -0.0832856  
C706     C      0.686680000000     0.635970000000     0.831840000000     0.0701037  
C707     C      0.638350000000     0.668360000000     0.821780000000     0.0711749  
C708     C      0.620360000000     0.649740000000     0.845110000000    -0.0840622  
C709     C      0.615010000000     0.828370000000     0.655600000000    -0.0833263  
C710     C      0.628900000000     0.855000000000     0.637640000000     0.0345158  
C711     C      0.663030000000     0.861550000000     0.641920000000    -0.0836452  
C712     C      0.681980000000     0.842640000000     0.664300000000     0.0698602  
C713     C      0.634880000000     0.809500000000     0.677310000000     0.0696257  
C714     C      0.608070000000     0.875940000000     0.614750000000     0.034466   
C715     C      0.581060000000     0.862440000000     0.596900000000    -0.0833497  
C716     C      0.562310000000     0.882380000000     0.575170000000     0.0696824  
C717     C      0.596310000000     0.928800000000     0.587910000000     0.0697265  
C718     C      0.615140000000     0.909770000000     0.610320000000    -0.0835804  
C719     C      0.831130000000     0.626760000000     0.641950000000    -0.0836231  
C720     C      0.865270000000     0.633320000000     0.637670000000     0.034474   
C721     C      0.879150000000     0.659950000000     0.655630000000    -0.0832942  
C722     C      0.859270000000     0.678820000000     0.677340000000     0.0697071  
C723     C      0.812180000000     0.645680000000     0.664330000000     0.0697924  
C724     C      0.886090000000     0.612380000000     0.614780000000     0.0344783  
C725     C      0.879020000000     0.578550000000     0.610340000000    -0.0836073  
C726     C      0.897850000000     0.559520000000     0.587940000000     0.0697425  
C727     C      0.931850000000     0.605940000000     0.575200000000     0.0696654  
C728     C      0.913100000000     0.625880000000     0.596930000000    -0.0833368  
C729     C      0.902490000000     0.867560000000     0.907940000000    -0.084075   
C730     C      0.876870000000     0.882920000000     0.889610000000     0.0348291  
C731     C      0.869760000000     0.916340000000     0.896610000000    -0.08329    
C732     C      0.888320000000     0.933500000000     0.920850000000     0.0701406  
C733     C      0.921060000000     0.885630000000     0.931250000000     0.071154   
C734     C      0.858140000000     0.864100000000     0.863260000000     0.0347752  
C735     C      0.873780000000     0.838600000000     0.845110000000    -0.084011   
C736     C      0.855790000000     0.819970000000     0.821790000000     0.0710915  
C737     C      0.807460000000     0.852370000000     0.831850000000     0.0700963  
C738     C      0.824530000000     0.870990000000     0.856090000000    -0.08326    
C739     C      0.834160000000     0.613040000000     0.845460000000    -0.0839847  
C740     C      0.860330000000     0.627270000000     0.863980000000     0.0349985  
C741     C      0.867550000000     0.660920000000     0.858740000000    -0.0841487  
C742     C      0.849500000000     0.679190000000     0.835160000000     0.0709103  
C743     C      0.816100000000     0.632290000000     0.822540000000     0.0707071  
C744     C      0.880210000000     0.607290000000     0.888420000000     0.0348699  
C745     C      0.865670000000     0.581370000000     0.906900000000    -0.0838016  
C746     C      0.884860000000     0.563220000000     0.929820000000     0.070685   
C747     C      0.932320000000     0.596040000000     0.917250000000     0.0708676  
C748     C      0.914120000000     0.614160000000     0.893680000000    -0.0840387  
C749     C      0.628460000000     0.906980000000     0.906860000000    -0.0838469  
C750     C      0.613910000000     0.881060000000     0.888380000000     0.0349401  
C751     C      0.580000000000     0.874200000000     0.893640000000    -0.084112   
C752     C      0.561810000000     0.892310000000     0.917210000000     0.070912   
C753     C      0.609280000000     0.925130000000     0.929790000000     0.0706272  
C754     C      0.633790000000     0.861090000000     0.863940000000     0.0348677  
C755     C      0.659970000000     0.875300000000     0.845420000000    -0.0838641  
C756     C      0.678030000000     0.856060000000     0.822500000000     0.0706867  
C757     C      0.644620000000     0.809160000000     0.835120000000     0.0708598  
C758     C      0.626570000000     0.827430000000     0.858690000000    -0.0840027  
C759     C      0.876880000000     0.831610000000     0.655970000000    -0.0837058  
C760     C      0.862680000000     0.858090000000     0.638070000000     0.034575   
C761     C      0.828550000000     0.864510000000     0.642650000000    -0.0835301  
C762     C      0.809840000000     0.845320000000     0.665040000000     0.0696528  
C763     C      0.857290000000     0.812500000000     0.677610000000     0.0701555  
C764     C      0.883280000000     0.878790000000     0.614810000000     0.0346365  
C765     C      0.876360000000     0.912610000000     0.610050000000    -0.0835546  
C766     C      0.895440000000     0.931370000000     0.587580000000     0.0696594  
C767     C      0.929090000000     0.884560000000     0.575300000000     0.0701286  
C768     C      0.910120000000     0.864940000000     0.597020000000    -0.0837992  
Co1      Co     0.448120000000     0.995040000000     0.002970000000     0.835909   
Co2      Co     0.046020000000     0.493290000000     0.502960000000     0.836125   
Co3      Co     0.496150000000     0.444600000000     0.999460000000     0.846553   
Co4      Co     0.498000000000     0.043730000000     0.499460000000     0.846692   
Co5      Co     0.246200000000     0.292710000000     0.249570000000     0.839037   
Co6      Co     0.247950000000     0.195620000000     0.249570000000     0.839011   
Co7      Co     0.297020000000     0.245080000000     0.253170000000     0.843039   
Co8      Co     0.197120000000     0.243250000000     0.253170000000     0.843186   
Co9      Co     0.448120000000     0.995040000000     0.502960000000     0.836009   
Co10     Co     0.046020000000     0.493290000000     0.002960000000     0.836028   
Co11     Co     0.496150000000     0.444600000000     0.499460000000     0.846475   
Co12     Co     0.498000000000     0.043730000000     0.999460000000     0.846776   
Co13     Co     0.246200000000     0.292710000000     0.749570000000     0.839038   
Co14     Co     0.247950000000     0.195620000000     0.749570000000     0.83902    
Co15     Co     0.297020000000     0.245080000000     0.753170000000     0.842994   
Co16     Co     0.197120000000     0.243250000000     0.753170000000     0.84318    
Co17     Co     0.448120000000     0.495040000000     0.002970000000     0.83604    
Co18     Co     0.046020000000     0.993290000000     0.502960000000     0.836005   
Co19     Co     0.496150000000     0.944600000000     0.999460000000     0.84659    
Co20     Co     0.498000000000     0.543730000000     0.499460000000     0.846613   
Co21     Co     0.246200000000     0.792720000000     0.249570000000     0.839166   
Co22     Co     0.247950000000     0.695620000000     0.249570000000     0.838989   
Co23     Co     0.297020000000     0.745080000000     0.253170000000     0.843094   
Co24     Co     0.197120000000     0.743250000000     0.253170000000     0.843213   
Co25     Co     0.448120000000     0.495040000000     0.502960000000     0.83614    
Co26     Co     0.046020000000     0.993290000000     0.002960000000     0.835908   
Co27     Co     0.496150000000     0.944600000000     0.499460000000     0.846511   
Co28     Co     0.498000000000     0.543730000000     0.999460000000     0.846696   
Co29     Co     0.246200000000     0.792720000000     0.749570000000     0.839167   
Co30     Co     0.247950000000     0.695620000000     0.749570000000     0.838997   
Co31     Co     0.297020000000     0.745080000000     0.753170000000     0.843049   
Co32     Co     0.197120000000     0.743250000000     0.753170000000     0.843207   
Co33     Co     0.948120000000     0.995040000000     0.002970000000     0.835921   
Co34     Co     0.546020000000     0.493290000000     0.502960000000     0.835987   
Co35     Co     0.996150000000     0.444600000000     0.999460000000     0.846446   
Co36     Co     0.998000000000     0.043730000000     0.499460000000     0.846569   
Co37     Co     0.746200000000     0.292710000000     0.249570000000     0.839058   
Co38     Co     0.747950000000     0.195620000000     0.249570000000     0.839014   
Co39     Co     0.797020000000     0.245080000000     0.253170000000     0.843014   
Co40     Co     0.697120000000     0.243250000000     0.253170000000     0.843196   
Co41     Co     0.948120000000     0.995040000000     0.502960000000     0.83602    
Co42     Co     0.546020000000     0.493290000000     0.002960000000     0.83589    
Co43     Co     0.996150000000     0.444600000000     0.499460000000     0.846367   
Co44     Co     0.998000000000     0.043730000000     0.999460000000     0.846652   
Co45     Co     0.746200000000     0.292710000000     0.749570000000     0.839059   
Co46     Co     0.747950000000     0.195620000000     0.749570000000     0.839022   
Co47     Co     0.797020000000     0.245080000000     0.753170000000     0.842969   
Co48     Co     0.697120000000     0.243250000000     0.753170000000     0.84319    
Co49     Co     0.948120000000     0.495040000000     0.002970000000     0.836052   
Co50     Co     0.546020000000     0.993290000000     0.502960000000     0.835867   
Co51     Co     0.996150000000     0.944600000000     0.999460000000     0.846482   
Co52     Co     0.998000000000     0.543730000000     0.499460000000     0.846489   
Co53     Co     0.746200000000     0.792720000000     0.249570000000     0.839187   
Co54     Co     0.747950000000     0.695620000000     0.249570000000     0.838992   
Co55     Co     0.797020000000     0.745080000000     0.253170000000     0.843069   
Co56     Co     0.697120000000     0.743250000000     0.253170000000     0.843223   
Co57     Co     0.948120000000     0.495040000000     0.502960000000     0.836151   
Co58     Co     0.546020000000     0.993290000000     0.002960000000     0.83577    
Co59     Co     0.996150000000     0.944600000000     0.499460000000     0.846404   
Co60     Co     0.998000000000     0.543730000000     0.999460000000     0.846573   
Co61     Co     0.746200000000     0.792720000000     0.749570000000     0.839187   
Co62     Co     0.747950000000     0.695620000000     0.749570000000     0.839      
Co63     Co     0.797020000000     0.745080000000     0.753170000000     0.843024   
Co64     Co     0.697120000000     0.743250000000     0.753170000000     0.843217   
H1       H      0.137680000000     0.063540000000     0.123740000000     0.0517639  
H2       H      0.105130000000     0.030990000000     0.084560000000     0.0315758  
H3       H      0.044750000000     0.115720000000     0.061940000000     0.0330725  
H4       H      0.077930000000     0.149460000000     0.099200000000     0.0516223  
H5       H      0.178070000000     0.104240000000     0.128860000000     0.0517575  
H6       H      0.210540000000     0.136960000000     0.167910000000     0.0316486  
H7       H      0.124650000000     0.195850000000     0.191060000000     0.0329628  
H8       H      0.090960000000     0.162450000000     0.153900000000     0.0515978  
H9       H      0.085790000000     0.146780000000     0.404540000000     0.0519843  
H10      H      0.053290000000     0.115670000000     0.444440000000     0.0322449  
H11      H      0.111870000000     0.028940000000     0.425130000000     0.0320089  
H12      H      0.143620000000     0.058760000000     0.382990000000     0.0516039  
H13      H      0.183070000000     0.098230000000     0.369560000000     0.0515783  
H14      H      0.212720000000     0.130070000000     0.327420000000     0.0320981  
H15      H      0.125170000000     0.188030000000     0.308720000000     0.0321521  
H16      H      0.094190000000     0.155430000000     0.348650000000     0.0519817  
H17      H      0.175320000000     0.381130000000     0.127970000000     0.0517635  
H18      H      0.208170000000     0.348920000000     0.166950000000     0.0318799  
H19      H      0.122950000000     0.289430000000     0.190940000000     0.0324952  
H20      H      0.088740000000     0.322430000000     0.153610000000     0.0515256  
H21      H      0.074730000000     0.336410000000     0.098990000000     0.0515038  
H22      H      0.041920000000     0.370740000000     0.061660000000     0.0326105  
H23      H      0.102980000000     0.454740000000     0.085150000000     0.031833   
H24      H      0.135040000000     0.421760000000     0.124160000000     0.0517881  
H25      H      0.405420000000     0.165890000000     0.153640000000     0.0515096  
H26      H      0.371210000000     0.198890000000     0.190960000000     0.0324975  
H27      H      0.285990000000     0.139400000000     0.166970000000     0.0318935  
H28      H      0.318840000000     0.107190000000     0.128000000000     0.0517891  
H29      H      0.359130000000     0.066560000000     0.124190000000     0.051786   
H30      H      0.391180000000     0.033580000000     0.085170000000     0.0318451  
H31      H      0.452240000000     0.117580000000     0.061690000000     0.0325905  
H32      H      0.419440000000     0.151900000000     0.099020000000     0.0515234  
H33      H      0.350520000000     0.429570000000     0.382990000000     0.0515727  
H34      H      0.382270000000     0.459390000000     0.425140000000     0.0319888  
H35      H      0.440840000000     0.372660000000     0.444440000000     0.0322079  
H36      H      0.408340000000     0.341550000000     0.404550000000     0.0519767  
H37      H      0.399950000000     0.332910000000     0.348650000000     0.0519751  
H38      H      0.368970000000     0.300310000000     0.308730000000     0.0321518  
H39      H      0.281420000000     0.358270000000     0.327420000000     0.0320939  
H40      H      0.311070000000     0.390110000000     0.369570000000     0.0515579  
H41      H      0.386840000000     0.173430000000     0.372970000000     0.0522118  
H42      H      0.356120000000     0.205100000000     0.332010000000     0.032074   
H43      H      0.296140000000     0.120250000000     0.308710000000     0.0321496  
H44      H      0.327880000000     0.087050000000     0.348130000000     0.0517103  
H45      H      0.339480000000     0.075350000000     0.404200000000     0.0517088  
H46      H      0.372580000000     0.043470000000     0.443620000000     0.0320764  
H47      H      0.458440000000     0.102400000000     0.420400000000     0.0321539  
H48      H      0.426880000000     0.133250000000     0.379470000000     0.0521788  
H49      H      0.067240000000     0.355110000000     0.379420000000     0.0521734  
H50      H      0.035690000000     0.385960000000     0.420370000000     0.032175   
H51      H      0.121550000000     0.444870000000     0.443590000000     0.03206    
H52      H      0.154650000000     0.412990000000     0.404170000000     0.0517128  
H53      H      0.166250000000     0.401290000000     0.348090000000     0.0517061  
H54      H      0.197990000000     0.368090000000     0.308680000000     0.0321182  
H55      H      0.138000000000     0.283250000000     0.331980000000     0.0320744  
H56      H      0.107270000000     0.314930000000     0.372930000000     0.0521877  
H57      H      0.316090000000     0.384090000000     0.128860000000     0.051734   
H58      H      0.283610000000     0.351360000000     0.167910000000     0.0316599  
H59      H      0.369500000000     0.292480000000     0.191070000000     0.0329335  
H60      H      0.403200000000     0.325880000000     0.153910000000     0.0515867  
H61      H      0.356480000000     0.424790000000     0.123750000000     0.0517472  
H62      H      0.389020000000     0.457340000000     0.084570000000     0.0315547  
H63      H      0.449410000000     0.372610000000     0.061940000000     0.0330816  
H64      H      0.416230000000     0.338860000000     0.099200000000     0.0515533  
H65      H      0.137680000000     0.063540000000     0.623740000000     0.0517641  
H66      H      0.105130000000     0.030990000000     0.584560000000     0.0315773  
H67      H      0.044750000000     0.115720000000     0.561930000000     0.0330844  
H68      H      0.077930000000     0.149460000000     0.599200000000     0.051624   
H69      H      0.178070000000     0.104240000000     0.628860000000     0.0517618  
H70      H      0.210540000000     0.136960000000     0.667910000000     0.0316407  
H71      H      0.124650000000     0.195850000000     0.691060000000     0.0329617  
H72      H      0.090960000000     0.162450000000     0.653900000000     0.0515971  
H73      H      0.085790000000     0.146780000000     0.904540000000     0.0519898  
H74      H      0.053290000000     0.115670000000     0.944430000000     0.0322435  
H75      H      0.111870000000     0.028940000000     0.925130000000     0.0320112  
H76      H      0.143620000000     0.058760000000     0.882990000000     0.0516047  
H77      H      0.183070000000     0.098230000000     0.869560000000     0.0515792  
H78      H      0.212720000000     0.130070000000     0.827420000000     0.0320921  
H79      H      0.125170000000     0.188030000000     0.808720000000     0.0321494  
H80      H      0.094190000000     0.155430000000     0.848640000000     0.0519876  
H81      H      0.175320000000     0.381130000000     0.627970000000     0.0517687  
H82      H      0.208170000000     0.348920000000     0.666950000000     0.0318813  
H83      H      0.122950000000     0.289430000000     0.690940000000     0.0324951  
H84      H      0.088740000000     0.322430000000     0.653610000000     0.0515249  
H85      H      0.074730000000     0.336410000000     0.598990000000     0.0515058  
H86      H      0.041920000000     0.370740000000     0.561660000000     0.0326142  
H87      H      0.102980000000     0.454740000000     0.585150000000     0.0318345  
H88      H      0.135040000000     0.421760000000     0.624160000000     0.0517885  
H89      H      0.405420000000     0.165890000000     0.653640000000     0.0515096  
H90      H      0.371210000000     0.198890000000     0.690970000000     0.0325061  
H91      H      0.285990000000     0.139400000000     0.666970000000     0.0318941  
H92      H      0.318840000000     0.107190000000     0.628000000000     0.0517908  
H93      H      0.359130000000     0.066560000000     0.624190000000     0.0517863  
H94      H      0.391180000000     0.033580000000     0.585170000000     0.0318458  
H95      H      0.452240000000     0.117580000000     0.561690000000     0.0325942  
H96      H      0.419440000000     0.151900000000     0.599020000000     0.0515255  
H97      H      0.350520000000     0.429570000000     0.883000000000     0.0515936  
H98      H      0.382270000000     0.459390000000     0.925140000000     0.0319879  
H99      H      0.440840000000     0.372660000000     0.944440000000     0.0322133  
H100     H      0.408340000000     0.341550000000     0.904550000000     0.0519821  
H101     H      0.399950000000     0.332910000000     0.848650000000     0.0519748  
H102     H      0.368970000000     0.300310000000     0.808730000000     0.0321516  
H103     H      0.281420000000     0.358270000000     0.827420000000     0.0320951  
H104     H      0.311070000000     0.390110000000     0.869570000000     0.0515591  
H105     H      0.386840000000     0.173430000000     0.872970000000     0.0522154  
H106     H      0.356120000000     0.205100000000     0.832020000000     0.0320704  
H107     H      0.296140000000     0.120250000000     0.808710000000     0.0321535  
H108     H      0.327880000000     0.087050000000     0.848130000000     0.0517103  
H109     H      0.339480000000     0.075350000000     0.904200000000     0.0517116  
H110     H      0.372580000000     0.043470000000     0.943620000000     0.0320867  
H111     H      0.458440000000     0.102400000000     0.920400000000     0.0321705  
H112     H      0.426880000000     0.133250000000     0.879470000000     0.0521766  
H113     H      0.067240000000     0.355110000000     0.879420000000     0.0521756  
H114     H      0.035690000000     0.385960000000     0.920360000000     0.0321679  
H115     H      0.121550000000     0.444870000000     0.943590000000     0.0320652  
H116     H      0.154650000000     0.412990000000     0.904170000000     0.0517147  
H117     H      0.166250000000     0.401290000000     0.848100000000     0.0517021  
H118     H      0.197990000000     0.368090000000     0.808680000000     0.0321197  
H119     H      0.138000000000     0.283250000000     0.831980000000     0.0320757  
H120     H      0.107270000000     0.314930000000     0.872930000000     0.0521898  
H121     H      0.316090000000     0.384090000000     0.628860000000     0.0517364  
H122     H      0.283610000000     0.351360000000     0.667910000000     0.0316686  
H123     H      0.369500000000     0.292480000000     0.691070000000     0.0329357  
H124     H      0.403200000000     0.325880000000     0.653910000000     0.0515882  
H125     H      0.356480000000     0.424790000000     0.623750000000     0.0517483  
H126     H      0.389020000000     0.457340000000     0.584560000000     0.0315653  
H127     H      0.449410000000     0.372610000000     0.561940000000     0.0330902  
H128     H      0.416230000000     0.338860000000     0.599200000000     0.0515553  
H129     H      0.137680000000     0.563540000000     0.123740000000     0.051755   
H130     H      0.105130000000     0.530990000000     0.084560000000     0.0315593  
H131     H      0.044750000000     0.615720000000     0.061940000000     0.0330725  
H132     H      0.077930000000     0.649460000000     0.099200000000     0.0516234  
H133     H      0.178070000000     0.604240000000     0.128860000000     0.0517518  
H134     H      0.210540000000     0.636960000000     0.167910000000     0.0316464  
H135     H      0.124650000000     0.695850000000     0.191060000000     0.0329567  
H136     H      0.090960000000     0.662450000000     0.153900000000     0.051609   
H137     H      0.085790000000     0.646780000000     0.404540000000     0.0519844  
H138     H      0.053290000000     0.615670000000     0.444440000000     0.0322452  
H139     H      0.111870000000     0.528940000000     0.425130000000     0.0319917  
H140     H      0.143620000000     0.558760000000     0.382990000000     0.0515938  
H141     H      0.183070000000     0.598230000000     0.369560000000     0.051573   
H142     H      0.212720000000     0.630070000000     0.327420000000     0.032095   
H143     H      0.125170000000     0.688030000000     0.308720000000     0.0321517  
H144     H      0.094190000000     0.655430000000     0.348650000000     0.0519803  
H145     H      0.175320000000     0.881130000000     0.127970000000     0.0517592  
H146     H      0.208170000000     0.848920000000     0.166950000000     0.0318766  
H147     H      0.122950000000     0.789430000000     0.190940000000     0.0324948  
H148     H      0.088740000000     0.822430000000     0.153610000000     0.051525   
H149     H      0.074730000000     0.836410000000     0.098990000000     0.0515039  
H150     H      0.041920000000     0.870740000000     0.061660000000     0.03261    
H151     H      0.102980000000     0.954740000000     0.085150000000     0.0318178  
H152     H      0.135040000000     0.921760000000     0.124160000000     0.0517795  
H153     H      0.405420000000     0.665890000000     0.153640000000     0.0515143  
H154     H      0.371210000000     0.698890000000     0.190960000000     0.0324892  
H155     H      0.285990000000     0.639400000000     0.166970000000     0.0319055  
H156     H      0.318840000000     0.607190000000     0.128000000000     0.0517811  
H157     H      0.359130000000     0.566560000000     0.124190000000     0.0517731  
H158     H      0.391180000000     0.533580000000     0.085170000000     0.0318306  
H159     H      0.452240000000     0.617580000000     0.061690000000     0.0325992  
H160     H      0.419440000000     0.651910000000     0.099020000000     0.0514829  
H161     H      0.350520000000     0.929580000000     0.382990000000     0.0515421  
H162     H      0.382270000000     0.959390000000     0.425140000000     0.0319759  
H163     H      0.440840000000     0.872660000000     0.444440000000     0.0322227  
H164     H      0.408340000000     0.841550000000     0.404550000000     0.051969   
H165     H      0.399950000000     0.832910000000     0.348650000000     0.051964   
H166     H      0.368970000000     0.800310000000     0.308730000000     0.0321562  
H167     H      0.281420000000     0.858270000000     0.327420000000     0.0320912  
H168     H      0.311070000000     0.890110000000     0.369570000000     0.0515538  
H169     H      0.386840000000     0.673430000000     0.372970000000     0.0522167  
H170     H      0.356120000000     0.705100000000     0.332010000000     0.0320739  
H171     H      0.296140000000     0.620250000000     0.308710000000     0.0321227  
H172     H      0.327880000000     0.587060000000     0.348130000000     0.0517502  
H173     H      0.339480000000     0.575350000000     0.404200000000     0.0516993  
H174     H      0.372580000000     0.543470000000     0.443620000000     0.0320651  
H175     H      0.458440000000     0.602400000000     0.420400000000     0.0321529  
H176     H      0.426880000000     0.633250000000     0.379470000000     0.052175   
H177     H      0.067240000000     0.855120000000     0.379420000000     0.0521983  
H178     H      0.035690000000     0.885950000000     0.420370000000     0.032187   
H179     H      0.121550000000     0.944870000000     0.443590000000     0.0320368  
H180     H      0.154650000000     0.913000000000     0.404170000000     0.0517042  
H181     H      0.166250000000     0.901290000000     0.348090000000     0.0516942  
H182     H      0.197990000000     0.868090000000     0.308680000000     0.0321146  
H183     H      0.138000000000     0.783250000000     0.331980000000     0.0320807  
H184     H      0.107270000000     0.814920000000     0.372930000000     0.0521594  
H185     H      0.316090000000     0.884090000000     0.128860000000     0.051728   
H186     H      0.283610000000     0.851360000000     0.167910000000     0.0316569  
H187     H      0.369500000000     0.792470000000     0.191070000000     0.0329414  
H188     H      0.403200000000     0.825880000000     0.153910000000     0.0515841  
H189     H      0.356480000000     0.924790000000     0.123750000000     0.0517422  
H190     H      0.389020000000     0.957340000000     0.084570000000     0.0315379  
H191     H      0.449410000000     0.872610000000     0.061940000000     0.0330732  
H192     H      0.416230000000     0.838870000000     0.099200000000     0.0515947  
H193     H      0.137680000000     0.563540000000     0.623740000000     0.0517552  
H194     H      0.105130000000     0.530990000000     0.584560000000     0.0315608  
H195     H      0.044750000000     0.615720000000     0.561930000000     0.0330844  
H196     H      0.077930000000     0.649460000000     0.599200000000     0.0516251  
H197     H      0.178070000000     0.604240000000     0.628860000000     0.0517561  
H198     H      0.210540000000     0.636960000000     0.667910000000     0.0316384  
H199     H      0.124650000000     0.695850000000     0.691060000000     0.0329556  
H200     H      0.090960000000     0.662450000000     0.653900000000     0.0516084  
H201     H      0.085790000000     0.646780000000     0.904540000000     0.0519899  
H202     H      0.053290000000     0.615670000000     0.944430000000     0.0322438  
H203     H      0.111870000000     0.528940000000     0.925130000000     0.031994   
H204     H      0.143620000000     0.558760000000     0.882990000000     0.0515946  
H205     H      0.183070000000     0.598230000000     0.869560000000     0.0515739  
H206     H      0.212720000000     0.630070000000     0.827420000000     0.032089   
H207     H      0.125170000000     0.688030000000     0.808720000000     0.0321489  
H208     H      0.094190000000     0.655430000000     0.848640000000     0.0519862  
H209     H      0.175320000000     0.881130000000     0.627970000000     0.0517645  
H210     H      0.208170000000     0.848920000000     0.666950000000     0.031878   
H211     H      0.122950000000     0.789430000000     0.690940000000     0.0324947  
H212     H      0.088740000000     0.822430000000     0.653610000000     0.0515243  
H213     H      0.074730000000     0.836410000000     0.598990000000     0.0515059  
H214     H      0.041920000000     0.870740000000     0.561660000000     0.0326136  
H215     H      0.102980000000     0.954740000000     0.585150000000     0.0318193  
H216     H      0.135040000000     0.921760000000     0.624160000000     0.0517799  
H217     H      0.405420000000     0.665890000000     0.653640000000     0.0515142  
H218     H      0.371210000000     0.698890000000     0.690970000000     0.0324977  
H219     H      0.285990000000     0.639400000000     0.666970000000     0.0319061  
H220     H      0.318840000000     0.607190000000     0.628000000000     0.0517829  
H221     H      0.359130000000     0.566560000000     0.624190000000     0.0517735  
H222     H      0.391180000000     0.533580000000     0.585170000000     0.0318312  
H223     H      0.452240000000     0.617580000000     0.561690000000     0.0326029  
H224     H      0.419440000000     0.651910000000     0.599020000000     0.051485   
H225     H      0.350520000000     0.929580000000     0.883000000000     0.051563   
H226     H      0.382270000000     0.959390000000     0.925140000000     0.0319751  
H227     H      0.440840000000     0.872660000000     0.944440000000     0.0322282  
H228     H      0.408340000000     0.841550000000     0.904550000000     0.0519743  
H229     H      0.399950000000     0.832910000000     0.848650000000     0.0519637  
H230     H      0.368970000000     0.800310000000     0.808730000000     0.032156   
H231     H      0.281420000000     0.858270000000     0.827420000000     0.0320924  
H232     H      0.311070000000     0.890110000000     0.869570000000     0.0515549  
H233     H      0.386840000000     0.673430000000     0.872970000000     0.0522203  
H234     H      0.356120000000     0.705100000000     0.832020000000     0.0320703  
H235     H      0.296140000000     0.620250000000     0.808710000000     0.0321266  
H236     H      0.327880000000     0.587060000000     0.848130000000     0.0517502  
H237     H      0.339480000000     0.575350000000     0.904200000000     0.0517022  
H238     H      0.372580000000     0.543470000000     0.943620000000     0.0320755  
H239     H      0.458440000000     0.602400000000     0.920400000000     0.0321695  
H240     H      0.426880000000     0.633250000000     0.879470000000     0.0521728  
H241     H      0.067240000000     0.855120000000     0.879420000000     0.0522005  
H242     H      0.035690000000     0.885950000000     0.920360000000     0.03218    
H243     H      0.121550000000     0.944870000000     0.943590000000     0.0320421  
H244     H      0.154650000000     0.913000000000     0.904170000000     0.051706   
H245     H      0.166250000000     0.901290000000     0.848100000000     0.0516902  
H246     H      0.197990000000     0.868090000000     0.808680000000     0.032116   
H247     H      0.138000000000     0.783250000000     0.831980000000     0.0320819  
H248     H      0.107270000000     0.814920000000     0.872930000000     0.0521616  
H249     H      0.316090000000     0.884090000000     0.628860000000     0.0517304  
H250     H      0.283610000000     0.851360000000     0.667910000000     0.0316655  
H251     H      0.369500000000     0.792470000000     0.691070000000     0.0329435  
H252     H      0.403200000000     0.825880000000     0.653910000000     0.0515856  
H253     H      0.356480000000     0.924790000000     0.623750000000     0.0517433  
H254     H      0.389020000000     0.957340000000     0.584560000000     0.0315484  
H255     H      0.449410000000     0.872610000000     0.561940000000     0.0330818  
H256     H      0.416230000000     0.838870000000     0.599200000000     0.0515967  
H257     H      0.637680000000     0.063540000000     0.123740000000     0.05176    
H258     H      0.605130000000     0.030990000000     0.084560000000     0.0315764  
H259     H      0.544750000000     0.115720000000     0.061940000000     0.0330672  
H260     H      0.577930000000     0.149460000000     0.099200000000     0.0515953  
H261     H      0.678070000000     0.104240000000     0.128860000000     0.0517588  
H262     H      0.710540000000     0.136960000000     0.167910000000     0.0316488  
H263     H      0.624650000000     0.195850000000     0.191060000000     0.0329588  
H264     H      0.590960000000     0.162450000000     0.153900000000     0.05159    
H265     H      0.585790000000     0.146780000000     0.404540000000     0.0519778  
H266     H      0.553290000000     0.115670000000     0.444440000000     0.0322331  
H267     H      0.611870000000     0.028940000000     0.425130000000     0.0320081  
H268     H      0.643620000000     0.058760000000     0.382990000000     0.0516029  
H269     H      0.683070000000     0.098230000000     0.369560000000     0.0515787  
H270     H      0.712720000000     0.130070000000     0.327420000000     0.0320986  
H271     H      0.625170000000     0.188030000000     0.308720000000     0.0321477  
H272     H      0.594190000000     0.155430000000     0.348650000000     0.0519734  
H273     H      0.675320000000     0.381130000000     0.127970000000     0.0517635  
H274     H      0.708170000000     0.348920000000     0.166950000000     0.0318803  
H275     H      0.622950000000     0.289430000000     0.190940000000     0.0325048  
H276     H      0.588740000000     0.322430000000     0.153610000000     0.0515107  
H277     H      0.574730000000     0.336410000000     0.098990000000     0.0514959  
H278     H      0.541920000000     0.370740000000     0.061660000000     0.0325987  
H279     H      0.602980000000     0.454740000000     0.085150000000     0.0318379  
H280     H      0.635040000000     0.421760000000     0.124160000000     0.0517869  
H281     H      0.905430000000     0.165890000000     0.153640000000     0.0514678  
H282     H      0.871210000000     0.198890000000     0.190960000000     0.0324841  
H283     H      0.785990000000     0.139400000000     0.166970000000     0.031894   
H284     H      0.818840000000     0.107190000000     0.128000000000     0.0517889  
H285     H      0.859130000000     0.066560000000     0.124190000000     0.0518126  
H286     H      0.891190000000     0.033580000000     0.085170000000     0.0318496  
H287     H      0.952240000000     0.117580000000     0.061690000000     0.0325769  
H288     H      0.919440000000     0.151900000000     0.099020000000     0.0515197  
H289     H      0.850520000000     0.429570000000     0.382990000000     0.0515753  
H290     H      0.882270000000     0.459390000000     0.425140000000     0.031986   
H291     H      0.940840000000     0.372660000000     0.444440000000     0.0321944  
H292     H      0.908340000000     0.341550000000     0.404550000000     0.0519776  
H293     H      0.899950000000     0.332910000000     0.348650000000     0.0519649  
H294     H      0.868970000000     0.300310000000     0.308730000000     0.0321515  
H295     H      0.781420000000     0.358270000000     0.327420000000     0.0320984  
H296     H      0.811070000000     0.390110000000     0.369570000000     0.0515558  
H297     H      0.886840000000     0.173430000000     0.372970000000     0.0522082  
H298     H      0.856120000000     0.205100000000     0.332010000000     0.0320711  
H299     H      0.796140000000     0.120250000000     0.308710000000     0.0321491  
H300     H      0.827880000000     0.087050000000     0.348130000000     0.0517108  
H301     H      0.839470000000     0.075350000000     0.404200000000     0.051683   
H302     H      0.872580000000     0.043470000000     0.443620000000     0.0320487  
H303     H      0.958440000000     0.102400000000     0.420400000000     0.0321503  
H304     H      0.926880000000     0.133250000000     0.379470000000     0.0521627  
H305     H      0.567240000000     0.355110000000     0.379420000000     0.0521635  
H306     H      0.535690000000     0.385960000000     0.420370000000     0.0321585  
H307     H      0.621550000000     0.444870000000     0.443590000000     0.0320618  
H308     H      0.654650000000     0.412990000000     0.404170000000     0.0517135  
H309     H      0.666250000000     0.401290000000     0.348090000000     0.0517053  
H310     H      0.697990000000     0.368090000000     0.308680000000     0.0321191  
H311     H      0.638000000000     0.283250000000     0.331980000000     0.0320718  
H312     H      0.607270000000     0.314930000000     0.372930000000     0.0521826  
H313     H      0.816090000000     0.384090000000     0.128860000000     0.0517247  
H314     H      0.783610000000     0.351360000000     0.167910000000     0.0316654  
H315     H      0.869500000000     0.292480000000     0.191070000000     0.0329342  
H316     H      0.903200000000     0.325880000000     0.153910000000     0.0515741  
H317     H      0.856480000000     0.424790000000     0.123750000000     0.0517504  
H318     H      0.889020000000     0.457340000000     0.084570000000     0.0315522  
H319     H      0.949410000000     0.372610000000     0.061940000000     0.0330602  
H320     H      0.916230000000     0.338860000000     0.099200000000     0.0515678  
H321     H      0.637680000000     0.063540000000     0.623740000000     0.0517602  
H322     H      0.605130000000     0.030990000000     0.584560000000     0.0315779  
H323     H      0.544750000000     0.115720000000     0.561930000000     0.0330791  
H324     H      0.577930000000     0.149460000000     0.599200000000     0.0515971  
H325     H      0.678070000000     0.104240000000     0.628860000000     0.051763   
H326     H      0.710540000000     0.136960000000     0.667910000000     0.0316408  
H327     H      0.624650000000     0.195850000000     0.691060000000     0.0329577  
H328     H      0.590960000000     0.162450000000     0.653900000000     0.0515893  
H329     H      0.585790000000     0.146780000000     0.904540000000     0.0519834  
H330     H      0.553290000000     0.115670000000     0.944430000000     0.0322316  
H331     H      0.611870000000     0.028940000000     0.925130000000     0.0320104  
H332     H      0.643620000000     0.058760000000     0.882990000000     0.0516037  
H333     H      0.683070000000     0.098230000000     0.869560000000     0.0515796  
H334     H      0.712720000000     0.130070000000     0.827420000000     0.0320925  
H335     H      0.625170000000     0.188030000000     0.808720000000     0.0321449  
H336     H      0.594190000000     0.155430000000     0.848640000000     0.0519794  
H337     H      0.675320000000     0.381130000000     0.627970000000     0.0517688  
H338     H      0.708170000000     0.348920000000     0.666950000000     0.0318817  
H339     H      0.622950000000     0.289430000000     0.690940000000     0.0325047  
H340     H      0.588740000000     0.322430000000     0.653610000000     0.05151    
H341     H      0.574730000000     0.336410000000     0.598990000000     0.051498   
H342     H      0.541920000000     0.370740000000     0.561660000000     0.0326024  
H343     H      0.602980000000     0.454740000000     0.585150000000     0.0318394  
H344     H      0.635040000000     0.421760000000     0.624160000000     0.0517873  
H345     H      0.905430000000     0.165890000000     0.653640000000     0.0514677  
H346     H      0.871210000000     0.198890000000     0.690970000000     0.0324927  
H347     H      0.785990000000     0.139400000000     0.666970000000     0.0318946  
H348     H      0.818840000000     0.107190000000     0.628000000000     0.0517907  
H349     H      0.859130000000     0.066560000000     0.624190000000     0.051813   
H350     H      0.891190000000     0.033580000000     0.585170000000     0.0318502  
H351     H      0.952240000000     0.117580000000     0.561690000000     0.0325806  
H352     H      0.919440000000     0.151900000000     0.599020000000     0.0515217  
H353     H      0.850520000000     0.429570000000     0.883000000000     0.0515962  
H354     H      0.882270000000     0.459390000000     0.925140000000     0.0319852  
H355     H      0.940840000000     0.372660000000     0.944440000000     0.0321999  
H356     H      0.908340000000     0.341550000000     0.904550000000     0.051983   
H357     H      0.899950000000     0.332910000000     0.848650000000     0.0519647  
H358     H      0.868970000000     0.300310000000     0.808730000000     0.0321513  
H359     H      0.781420000000     0.358270000000     0.827420000000     0.0320995  
H360     H      0.811070000000     0.390110000000     0.869570000000     0.051557   
H361     H      0.886840000000     0.173430000000     0.872970000000     0.0522118  
H362     H      0.856120000000     0.205100000000     0.832020000000     0.0320675  
H363     H      0.796140000000     0.120250000000     0.808710000000     0.032153   
H364     H      0.827880000000     0.087050000000     0.848130000000     0.0517107  
H365     H      0.839470000000     0.075350000000     0.904200000000     0.0516858  
H366     H      0.872580000000     0.043470000000     0.943620000000     0.0320591  
H367     H      0.958440000000     0.102400000000     0.920400000000     0.032167   
H368     H      0.926880000000     0.133250000000     0.879470000000     0.0521605  
H369     H      0.567240000000     0.355110000000     0.879420000000     0.0521657  
H370     H      0.535690000000     0.385960000000     0.920360000000     0.0321515  
H371     H      0.621550000000     0.444870000000     0.943590000000     0.032067   
H372     H      0.654650000000     0.412990000000     0.904170000000     0.0517153  
H373     H      0.666250000000     0.401290000000     0.848100000000     0.0517013  
H374     H      0.697990000000     0.368090000000     0.808680000000     0.0321205  
H375     H      0.638000000000     0.283250000000     0.831980000000     0.0320731  
H376     H      0.607270000000     0.314930000000     0.872930000000     0.0521848  
H377     H      0.816090000000     0.384090000000     0.628860000000     0.0517271  
H378     H      0.783610000000     0.351360000000     0.667910000000     0.0316741  
H379     H      0.869500000000     0.292480000000     0.691070000000     0.0329363  
H380     H      0.903200000000     0.325880000000     0.653910000000     0.0515756  
H381     H      0.856480000000     0.424790000000     0.623750000000     0.0517515  
H382     H      0.889020000000     0.457340000000     0.584560000000     0.0315627  
H383     H      0.949410000000     0.372610000000     0.561940000000     0.0330688  
H384     H      0.916230000000     0.338860000000     0.599200000000     0.0515698  
H385     H      0.637680000000     0.563540000000     0.123740000000     0.0517511  
H386     H      0.605130000000     0.530990000000     0.084560000000     0.0315599  
H387     H      0.544750000000     0.615720000000     0.061940000000     0.0330673  
H388     H      0.577930000000     0.649460000000     0.099200000000     0.0515964  
H389     H      0.678070000000     0.604240000000     0.128860000000     0.051753   
H390     H      0.710540000000     0.636960000000     0.167910000000     0.0316465  
H391     H      0.624650000000     0.695850000000     0.191060000000     0.0329527  
H392     H      0.590960000000     0.662450000000     0.153900000000     0.0516012  
H393     H      0.585790000000     0.646780000000     0.404540000000     0.0519779  
H394     H      0.553290000000     0.615670000000     0.444440000000     0.0322334  
H395     H      0.611870000000     0.528940000000     0.425130000000     0.0319909  
H396     H      0.643620000000     0.558760000000     0.382990000000     0.0515928  
H397     H      0.683070000000     0.598230000000     0.369560000000     0.0515734  
H398     H      0.712720000000     0.630070000000     0.327420000000     0.0320954  
H399     H      0.625170000000     0.688030000000     0.308720000000     0.0321472  
H400     H      0.594190000000     0.655430000000     0.348650000000     0.051972   
H401     H      0.675320000000     0.881130000000     0.127970000000     0.0517592  
H402     H      0.708170000000     0.848920000000     0.166950000000     0.031877   
H403     H      0.622950000000     0.789430000000     0.190940000000     0.0325044  
H404     H      0.588740000000     0.822430000000     0.153610000000     0.0515101  
H405     H      0.574730000000     0.836410000000     0.098990000000     0.051496   
H406     H      0.541920000000     0.870740000000     0.061660000000     0.0325982  
H407     H      0.602980000000     0.954740000000     0.085150000000     0.0318227  
H408     H      0.635040000000     0.921760000000     0.124160000000     0.0517783  
H409     H      0.905430000000     0.665890000000     0.153640000000     0.0514725  
H410     H      0.871210000000     0.698890000000     0.190960000000     0.0324757  
H411     H      0.785990000000     0.639400000000     0.166970000000     0.031906   
H412     H      0.818840000000     0.607190000000     0.128000000000     0.051781   
H413     H      0.859130000000     0.566560000000     0.124190000000     0.0517998  
H414     H      0.891190000000     0.533580000000     0.085170000000     0.031835   
H415     H      0.952240000000     0.617580000000     0.061690000000     0.0325857  
H416     H      0.919440000000     0.651910000000     0.099020000000     0.0514791  
H417     H      0.850520000000     0.929580000000     0.382990000000     0.0515447  
H418     H      0.882270000000     0.959390000000     0.425140000000     0.0319731  
H419     H      0.940840000000     0.872660000000     0.444440000000     0.0322093  
H420     H      0.908340000000     0.841550000000     0.404550000000     0.0519699  
H421     H      0.899950000000     0.832910000000     0.348650000000     0.0519538  
H422     H      0.868970000000     0.800310000000     0.308730000000     0.0321559  
H423     H      0.781420000000     0.858270000000     0.327420000000     0.0320956  
H424     H      0.811070000000     0.890110000000     0.369570000000     0.0515517  
H425     H      0.886840000000     0.673430000000     0.372970000000     0.0522131  
H426     H      0.856120000000     0.705100000000     0.332010000000     0.032071   
H427     H      0.796140000000     0.620250000000     0.308710000000     0.0321221  
H428     H      0.827880000000     0.587060000000     0.348130000000     0.0517506  
H429     H      0.839470000000     0.575350000000     0.404200000000     0.0516735  
H430     H      0.872580000000     0.543470000000     0.443620000000     0.0320375  
H431     H      0.958440000000     0.602400000000     0.420400000000     0.0321494  
H432     H      0.926880000000     0.633250000000     0.379470000000     0.0521589  
H433     H      0.567240000000     0.855120000000     0.379420000000     0.0521884  
H434     H      0.535690000000     0.885950000000     0.420370000000     0.0321705  
H435     H      0.621550000000     0.944870000000     0.443590000000     0.0320386  
H436     H      0.654650000000     0.913000000000     0.404170000000     0.0517048  
H437     H      0.666250000000     0.901290000000     0.348090000000     0.0516934  
H438     H      0.697990000000     0.868090000000     0.308680000000     0.0321155  
H439     H      0.638000000000     0.783250000000     0.331980000000     0.032078   
H440     H      0.607270000000     0.814920000000     0.372930000000     0.0521544  
H441     H      0.816090000000     0.884090000000     0.128860000000     0.0517187  
H442     H      0.783610000000     0.851360000000     0.167910000000     0.0316624  
H443     H      0.869500000000     0.792470000000     0.191070000000     0.032942   
H444     H      0.903200000000     0.825880000000     0.153910000000     0.0515716  
H445     H      0.856480000000     0.924790000000     0.123750000000     0.0517454  
H446     H      0.889020000000     0.957340000000     0.084570000000     0.0315353  
H447     H      0.949410000000     0.872610000000     0.061940000000     0.0330517  
H448     H      0.916230000000     0.838870000000     0.099200000000     0.0516092  
H449     H      0.637680000000     0.563540000000     0.623740000000     0.0517513  
H450     H      0.605130000000     0.530990000000     0.584560000000     0.0315614  
H451     H      0.544750000000     0.615720000000     0.561930000000     0.0330791  
H452     H      0.577930000000     0.649460000000     0.599200000000     0.0515982  
H453     H      0.678070000000     0.604240000000     0.628860000000     0.0517573  
H454     H      0.710540000000     0.636960000000     0.667910000000     0.0316386  
H455     H      0.624650000000     0.695850000000     0.691060000000     0.0329516  
H456     H      0.590960000000     0.662450000000     0.653900000000     0.0516006  
H457     H      0.585790000000     0.646780000000     0.904540000000     0.0519834  
H458     H      0.553290000000     0.615670000000     0.944430000000     0.0322319  
H459     H      0.611870000000     0.528940000000     0.925130000000     0.0319932  
H460     H      0.643620000000     0.558760000000     0.882990000000     0.0515936  
H461     H      0.683070000000     0.598230000000     0.869560000000     0.0515743  
H462     H      0.712720000000     0.630070000000     0.827420000000     0.0320894  
H463     H      0.625170000000     0.688030000000     0.808720000000     0.0321445  
H464     H      0.594190000000     0.655430000000     0.848640000000     0.051978   
H465     H      0.675320000000     0.881130000000     0.627970000000     0.0517645  
H466     H      0.708170000000     0.848920000000     0.666950000000     0.0318784  
H467     H      0.622950000000     0.789430000000     0.690940000000     0.0325043  
H468     H      0.588740000000     0.822430000000     0.653610000000     0.0515094  
H469     H      0.574730000000     0.836410000000     0.598990000000     0.051498   
H470     H      0.541920000000     0.870740000000     0.561660000000     0.0326018  
H471     H      0.602980000000     0.954740000000     0.585150000000     0.0318242  
H472     H      0.635040000000     0.921760000000     0.624160000000     0.0517787  
H473     H      0.905430000000     0.665890000000     0.653640000000     0.0514724  
H474     H      0.871210000000     0.698890000000     0.690970000000     0.0324843  
H475     H      0.785990000000     0.639400000000     0.666970000000     0.0319066  
H476     H      0.818840000000     0.607190000000     0.628000000000     0.0517827  
H477     H      0.859130000000     0.566560000000     0.624190000000     0.0518001  
H478     H      0.891190000000     0.533580000000     0.585170000000     0.0318357  
H479     H      0.952240000000     0.617580000000     0.561690000000     0.0325894  
H480     H      0.919440000000     0.651910000000     0.599020000000     0.0514812  
H481     H      0.850520000000     0.929580000000     0.883000000000     0.0515656  
H482     H      0.882270000000     0.959390000000     0.925140000000     0.0319723  
H483     H      0.940840000000     0.872660000000     0.944440000000     0.0322148  
H484     H      0.908340000000     0.841550000000     0.904550000000     0.0519752  
H485     H      0.899950000000     0.832910000000     0.848650000000     0.0519536  
H486     H      0.868970000000     0.800310000000     0.808730000000     0.0321557  
H487     H      0.781420000000     0.858270000000     0.827420000000     0.0320968  
H488     H      0.811070000000     0.890110000000     0.869570000000     0.0515528  
H489     H      0.886840000000     0.673430000000     0.872970000000     0.0522166  
H490     H      0.856120000000     0.705100000000     0.832020000000     0.0320674  
H491     H      0.796140000000     0.620250000000     0.808710000000     0.032126   
H492     H      0.827880000000     0.587060000000     0.848130000000     0.0517506  
H493     H      0.839470000000     0.575350000000     0.904200000000     0.0516763  
H494     H      0.872580000000     0.543470000000     0.943620000000     0.0320479  
H495     H      0.958440000000     0.602400000000     0.920400000000     0.032166   
H496     H      0.926880000000     0.633250000000     0.879470000000     0.0521567  
H497     H      0.567240000000     0.855120000000     0.879420000000     0.0521906  
H498     H      0.535690000000     0.885950000000     0.920360000000     0.0321635  
H499     H      0.621550000000     0.944870000000     0.943590000000     0.0320439  
H500     H      0.654650000000     0.913000000000     0.904170000000     0.0517067  
H501     H      0.666250000000     0.901290000000     0.848100000000     0.0516893  
H502     H      0.697990000000     0.868090000000     0.808680000000     0.0321169  
H503     H      0.638000000000     0.783250000000     0.831980000000     0.0320793  
H504     H      0.607270000000     0.814920000000     0.872930000000     0.0521565  
H505     H      0.816090000000     0.884090000000     0.628860000000     0.0517211  
H506     H      0.783610000000     0.851360000000     0.667910000000     0.031671   
H507     H      0.869500000000     0.792470000000     0.691070000000     0.0329442  
H508     H      0.903200000000     0.825880000000     0.653910000000     0.051573   
H509     H      0.856480000000     0.924790000000     0.623750000000     0.0517465  
H510     H      0.889020000000     0.957340000000     0.584560000000     0.0315459  
H511     H      0.949410000000     0.872610000000     0.561940000000     0.0330604  
H512     H      0.916230000000     0.838870000000     0.599200000000     0.0516112  
N1       N      0.072610000000     0.070900000000     0.070210000000    -0.188695   
N2       N      0.170040000000     0.168750000000     0.182520000000    -0.188649   
N3       N      0.079910000000     0.069900000000     0.437520000000    -0.189435   
N4       N      0.171330000000     0.161720000000     0.315310000000    -0.189471   
N5       N      0.168000000000     0.316960000000     0.182120000000    -0.188591   
N6       N      0.070230000000     0.415190000000     0.070240000000    -0.188533   
N7       N      0.326160000000     0.171360000000     0.182140000000    -0.188525   
N8       N      0.423930000000     0.073130000000     0.070270000000    -0.188525   
N9       N      0.414230000000     0.418430000000     0.437530000000    -0.189476   
N10      N      0.322810000000     0.326620000000     0.315320000000    -0.189402   
N11      N      0.323910000000     0.165050000000     0.317200000000    -0.189843   
N12      N      0.417870000000     0.070710000000     0.435180000000    -0.189845   
N13      N      0.076270000000     0.417630000000     0.435160000000    -0.189821   
N14      N      0.170220000000     0.323300000000     0.317170000000    -0.189835   
N15      N      0.324120000000     0.319570000000     0.182520000000    -0.188685   
N16      N      0.421540000000     0.417430000000     0.070210000000    -0.188701   
N17      N      0.072610000000     0.070900000000     0.570210000000    -0.188695   
N18      N      0.170040000000     0.168750000000     0.682510000000    -0.188613   
N19      N      0.079910000000     0.069900000000     0.937520000000    -0.189432   
N20      N      0.171330000000     0.161720000000     0.815310000000    -0.189482   
N21      N      0.168000000000     0.316960000000     0.682110000000    -0.188543   
N22      N      0.070230000000     0.415190000000     0.570240000000    -0.188532   
N23      N      0.326160000000     0.171360000000     0.682140000000    -0.188526   
N24      N      0.423930000000     0.073130000000     0.570270000000    -0.188521   
N25      N      0.414230000000     0.418430000000     0.937530000000    -0.189473   
N26      N      0.322810000000     0.326620000000     0.815320000000    -0.189402   
N27      N      0.323910000000     0.165050000000     0.817200000000    -0.189804   
N28      N      0.417870000000     0.070710000000     0.935190000000    -0.189837   
N29      N      0.076270000000     0.417630000000     0.935160000000    -0.18982    
N30      N      0.170220000000     0.323300000000     0.817170000000    -0.189835   
N31      N      0.324120000000     0.319570000000     0.682520000000    -0.188684   
N32      N      0.421540000000     0.417430000000     0.570210000000    -0.188692   
N33      N      0.072610000000     0.570900000000     0.070210000000    -0.188698   
N34      N      0.170040000000     0.668750000000     0.182520000000    -0.188654   
N35      N      0.079910000000     0.569900000000     0.437520000000    -0.189438   
N36      N      0.171330000000     0.661720000000     0.315310000000    -0.189472   
N37      N      0.168000000000     0.816960000000     0.182120000000    -0.188595   
N38      N      0.070230000000     0.915190000000     0.070240000000    -0.188535   
N39      N      0.326160000000     0.671370000000     0.182140000000    -0.188555   
N40      N      0.423930000000     0.573130000000     0.070270000000    -0.188522   
N41      N      0.414230000000     0.918430000000     0.437530000000    -0.189477   
N42      N      0.322810000000     0.826620000000     0.315320000000    -0.189392   
N43      N      0.323910000000     0.665050000000     0.317200000000    -0.189845   
N44      N      0.417870000000     0.570710000000     0.435180000000    -0.189846   
N45      N      0.076270000000     0.917640000000     0.435160000000    -0.189866   
N46      N      0.170220000000     0.823300000000     0.317170000000    -0.189834   
N47      N      0.324120000000     0.819570000000     0.182520000000    -0.188691   
N48      N      0.421540000000     0.917430000000     0.070210000000    -0.188709   
N49      N      0.072610000000     0.570900000000     0.570210000000    -0.188698   
N50      N      0.170040000000     0.668750000000     0.682510000000    -0.188619   
N51      N      0.079910000000     0.569900000000     0.937520000000    -0.189435   
N52      N      0.171330000000     0.661720000000     0.815310000000    -0.189482   
N53      N      0.168000000000     0.816960000000     0.682110000000    -0.188547   
N54      N      0.070230000000     0.915190000000     0.570240000000    -0.188534   
N55      N      0.326160000000     0.671370000000     0.682140000000    -0.188555   
N56      N      0.423930000000     0.573130000000     0.570270000000    -0.188518   
N57      N      0.414230000000     0.918430000000     0.937530000000    -0.189475   
N58      N      0.322810000000     0.826620000000     0.815320000000    -0.189391   
N59      N      0.323910000000     0.665050000000     0.817200000000    -0.189807   
N60      N      0.417870000000     0.570710000000     0.935190000000    -0.189838   
N61      N      0.076270000000     0.917640000000     0.935160000000    -0.189865   
N62      N      0.170220000000     0.823300000000     0.817170000000    -0.189833   
N63      N      0.324120000000     0.819570000000     0.682520000000    -0.18869    
N64      N      0.421540000000     0.917430000000     0.570210000000    -0.1887     
N65      N      0.572610000000     0.070900000000     0.070210000000    -0.18869    
N66      N      0.670040000000     0.168750000000     0.182520000000    -0.188649   
N67      N      0.579910000000     0.069900000000     0.437520000000    -0.189437   
N68      N      0.671330000000     0.161720000000     0.315310000000    -0.189471   
N69      N      0.668000000000     0.316960000000     0.182120000000    -0.188595   
N70      N      0.570230000000     0.415190000000     0.070240000000    -0.188512   
N71      N      0.826160000000     0.171360000000     0.182140000000    -0.188551   
N72      N      0.923930000000     0.073130000000     0.070270000000    -0.188527   
N73      N      0.914230000000     0.418430000000     0.437530000000    -0.18948    
N74      N      0.822810000000     0.326620000000     0.315320000000    -0.189365   
N75      N      0.823910000000     0.165050000000     0.317200000000    -0.189844   
N76      N      0.917860000000     0.070710000000     0.435180000000    -0.189841   
N77      N      0.576270000000     0.417630000000     0.435160000000    -0.189823   
N78      N      0.670220000000     0.323300000000     0.317170000000    -0.189835   
N79      N      0.824120000000     0.319570000000     0.182520000000    -0.188646   
N80      N      0.921540000000     0.417430000000     0.070210000000    -0.188712   
N81      N      0.572610000000     0.070900000000     0.570210000000    -0.188689   
N82      N      0.670040000000     0.168750000000     0.682510000000    -0.188614   
N83      N      0.579910000000     0.069900000000     0.937520000000    -0.189434   
N84      N      0.671330000000     0.161720000000     0.815310000000    -0.189482   
N85      N      0.668000000000     0.316960000000     0.682110000000    -0.188547   
N86      N      0.570230000000     0.415190000000     0.570240000000    -0.188511   
N87      N      0.826160000000     0.171360000000     0.682140000000    -0.188551   
N88      N      0.923930000000     0.073130000000     0.570270000000    -0.188523   
N89      N      0.914230000000     0.418430000000     0.937530000000    -0.189477   
N90      N      0.822810000000     0.326620000000     0.815320000000    -0.189365   
N91      N      0.823910000000     0.165050000000     0.817200000000    -0.189805   
N92      N      0.917860000000     0.070710000000     0.935190000000    -0.189833   
N93      N      0.576270000000     0.417630000000     0.935160000000    -0.189822   
N94      N      0.670220000000     0.323300000000     0.817170000000    -0.189834   
N95      N      0.824120000000     0.319570000000     0.682520000000    -0.188645   
N96      N      0.921540000000     0.417430000000     0.570210000000    -0.188703   
N97      N      0.572610000000     0.570900000000     0.070210000000    -0.188693   
N98      N      0.670040000000     0.668750000000     0.182520000000    -0.188654   
N99      N      0.579910000000     0.569900000000     0.437520000000    -0.18944    
N100     N      0.671330000000     0.661720000000     0.315310000000    -0.189472   
N101     N      0.668000000000     0.816960000000     0.182120000000    -0.1886     
N102     N      0.570230000000     0.915190000000     0.070240000000    -0.188513   
N103     N      0.826160000000     0.671370000000     0.182140000000    -0.18858    
N104     N      0.923930000000     0.573130000000     0.070270000000    -0.188524   
N105     N      0.914230000000     0.918430000000     0.437530000000    -0.189482   
N106     N      0.822810000000     0.826620000000     0.315320000000    -0.189355   
N107     N      0.823910000000     0.665050000000     0.317200000000    -0.189846   
N108     N      0.917860000000     0.570710000000     0.435180000000    -0.189842   
N109     N      0.576270000000     0.917640000000     0.435160000000    -0.189868   
N110     N      0.670220000000     0.823300000000     0.317170000000    -0.189833   
N111     N      0.824120000000     0.819570000000     0.182520000000    -0.188651   
N112     N      0.921540000000     0.917430000000     0.070210000000    -0.188719   
N113     N      0.572610000000     0.570900000000     0.570210000000    -0.188693   
N114     N      0.670040000000     0.668750000000     0.682510000000    -0.188619   
N115     N      0.579910000000     0.569900000000     0.937520000000    -0.189437   
N116     N      0.671330000000     0.661720000000     0.815310000000    -0.189482   
N117     N      0.668000000000     0.816960000000     0.682110000000    -0.188551   
N118     N      0.570230000000     0.915190000000     0.570240000000    -0.188512   
N119     N      0.826160000000     0.671370000000     0.682140000000    -0.188581   
N120     N      0.923930000000     0.573130000000     0.570270000000    -0.18852    
N121     N      0.914230000000     0.918430000000     0.937530000000    -0.189479   
N122     N      0.822810000000     0.826620000000     0.815320000000    -0.189354   
N123     N      0.823910000000     0.665050000000     0.817200000000    -0.189808   
N124     N      0.917860000000     0.570710000000     0.935190000000    -0.189835   
N125     N      0.576270000000     0.917640000000     0.935160000000    -0.189867   
N126     N      0.670220000000     0.823300000000     0.817170000000    -0.189833   
N127     N      0.824120000000     0.819570000000     0.682520000000    -0.18865    
N128     N      0.921540000000     0.917430000000     0.570210000000    -0.188711   
O1       O      0.429550000000     0.465040000000     0.039550000000    -0.369801   
O2       O      0.064600000000     0.023290000000     0.039540000000    -0.36977    
O3       O      0.026980000000     0.421880000000     0.032930000000    -0.368286   
O4       O      0.467170000000     0.066450000000     0.032940000000    -0.368193   
O5       O      0.063270000000     0.463080000000     0.039860000000    -0.369621   
O6       O      0.430880000000     0.025240000000     0.039880000000    -0.369437   
O7       O      0.028930000000     0.065160000000     0.033430000000    -0.366333   
O8       O      0.465230000000     0.423170000000     0.033430000000    -0.366246   
O9       O      0.424070000000     0.027260000000     0.472040000000    -0.359925   
O10      O      0.070070000000     0.461080000000     0.472020000000    -0.359985   
O11      O      0.460720000000     0.422990000000     0.470640000000    -0.362909   
O12      O      0.033420000000     0.065340000000     0.470640000000    -0.362969   
O13      O      0.069330000000     0.023280000000     0.469060000000    -0.361089   
O14      O      0.424810000000     0.465060000000     0.469070000000    -0.361086   
O15      O      0.465980000000     0.062810000000     0.465190000000    -0.368221   
O16      O      0.028160000000     0.425530000000     0.465170000000    -0.36812    
O17      O      0.497070000000     0.494170000000     0.987650000000    -0.592804   
O18      O      0.276220000000     0.311210000000     0.212970000000    -0.370245   
O19      O      0.217940000000     0.177120000000     0.212970000000    -0.370186   
O20      O      0.319780000000     0.214300000000     0.219650000000    -0.367686   
O21      O      0.174370000000     0.274030000000     0.219630000000    -0.367713   
O22      O      0.278060000000     0.178580000000     0.212470000000    -0.370047   
O23      O      0.216100000000     0.309740000000     0.212460000000    -0.369959   
O24      O      0.175550000000     0.212230000000     0.219350000000    -0.365565   
O25      O      0.318600000000     0.276100000000     0.219360000000    -0.36563    
O26      O      0.213910000000     0.316800000000     0.280400000000    -0.360351   
O27      O      0.280230000000     0.171540000000     0.280420000000    -0.360367   
O28      O      0.318550000000     0.280370000000     0.282150000000    -0.362436   
O29      O      0.175600000000     0.207960000000     0.282150000000    -0.362549   
O30      O      0.218040000000     0.172410000000     0.283600000000    -0.361489   
O31      O      0.276110000000     0.315930000000     0.283600000000    -0.361379   
O32      O      0.177920000000     0.275340000000     0.287260000000    -0.367781   
O33      O      0.316220000000     0.213000000000     0.287280000000    -0.367645   
O34      O      0.247070000000     0.244170000000     0.264960000000    -0.592684   
O35      O      0.429550000000     0.465040000000     0.539550000000    -0.369747   
O36      O      0.064600000000     0.023290000000     0.539540000000    -0.36977    
O37      O      0.026980000000     0.421880000000     0.532930000000    -0.368263   
O38      O      0.467170000000     0.066450000000     0.532940000000    -0.368158   
O39      O      0.063270000000     0.463080000000     0.539860000000    -0.369621   
O40      O      0.430880000000     0.025240000000     0.539880000000    -0.369378   
O41      O      0.028930000000     0.065160000000     0.533430000000    -0.366311   
O42      O      0.465230000000     0.423170000000     0.533430000000    -0.366214   
O43      O      0.424070000000     0.027260000000     0.972040000000    -0.359929   
O44      O      0.070070000000     0.461080000000     0.972020000000    -0.359959   
O45      O      0.460720000000     0.422990000000     0.970640000000    -0.362895   
O46      O      0.033420000000     0.065340000000     0.970640000000    -0.36296    
O47      O      0.069330000000     0.023280000000     0.969060000000    -0.361064   
O48      O      0.424810000000     0.465060000000     0.969070000000    -0.361001   
O49      O      0.465980000000     0.062810000000     0.965190000000    -0.36827    
O50      O      0.028160000000     0.425530000000     0.965170000000    -0.368115   
O51      O      0.497070000000     0.494170000000     0.487650000000    -0.59285    
O52      O      0.276220000000     0.311210000000     0.712970000000    -0.370269   
O53      O      0.217940000000     0.177120000000     0.712970000000    -0.370169   
O54      O      0.319780000000     0.214300000000     0.719650000000    -0.367684   
O55      O      0.174370000000     0.274030000000     0.719630000000    -0.367695   
O56      O      0.278060000000     0.178580000000     0.712470000000    -0.370049   
O57      O      0.216100000000     0.309740000000     0.712460000000    -0.369938   
O58      O      0.175550000000     0.212230000000     0.719350000000    -0.365547   
O59      O      0.318600000000     0.276100000000     0.719350000000    -0.365647   
O60      O      0.213910000000     0.316800000000     0.780400000000    -0.360351   
O61      O      0.280230000000     0.171540000000     0.780420000000    -0.36043    
O62      O      0.318550000000     0.280370000000     0.782150000000    -0.362441   
O63      O      0.175600000000     0.207960000000     0.782150000000    -0.362549   
O64      O      0.218040000000     0.172410000000     0.783600000000    -0.361487   
O65      O      0.276110000000     0.315930000000     0.783600000000    -0.36138    
O66      O      0.177920000000     0.275340000000     0.787260000000    -0.36778    
O67      O      0.316220000000     0.213000000000     0.787280000000    -0.36768    
O68      O      0.247070000000     0.244170000000     0.764960000000    -0.592676   
O69      O      0.429550000000     0.965040000000     0.039550000000    -0.369805   
O70      O      0.064600000000     0.523290000000     0.039540000000    -0.369818   
O71      O      0.026980000000     0.921880000000     0.032930000000    -0.368291   
O72      O      0.467170000000     0.566450000000     0.032940000000    -0.368193   
O73      O      0.063270000000     0.963080000000     0.039860000000    -0.369631   
O74      O      0.430880000000     0.525240000000     0.039880000000    -0.369487   
O75      O      0.028930000000     0.565160000000     0.033430000000    -0.366334   
O76      O      0.465230000000     0.923170000000     0.033430000000    -0.366247   
O77      O      0.424070000000     0.527260000000     0.472040000000    -0.359964   
O78      O      0.070070000000     0.961080000000     0.472020000000    -0.359906   
O79      O      0.460720000000     0.922990000000     0.470640000000    -0.362958   
O80      O      0.033420000000     0.565340000000     0.470640000000    -0.36297    
O81      O      0.069330000000     0.523280000000     0.469060000000    -0.361136   
O82      O      0.424810000000     0.965050000000     0.469070000000    -0.361194   
O83      O      0.465980000000     0.562810000000     0.465190000000    -0.368223   
O84      O      0.028160000000     0.925530000000     0.465170000000    -0.368155   
O85      O      0.497070000000     0.994170000000     0.987650000000    -0.592821   
O86      O      0.276220000000     0.811210000000     0.212970000000    -0.3703     
O87      O      0.217940000000     0.677120000000     0.212970000000    -0.370184   
O88      O      0.319780000000     0.714300000000     0.219650000000    -0.367707   
O89      O      0.174370000000     0.774030000000     0.219630000000    -0.367721   
O90      O      0.278060000000     0.678580000000     0.212470000000    -0.370065   
O91      O      0.216100000000     0.809740000000     0.212460000000    -0.370011   
O92      O      0.175550000000     0.712230000000     0.219350000000    -0.365567   
O93      O      0.318600000000     0.776100000000     0.219360000000    -0.365643   
O94      O      0.213910000000     0.816800000000     0.280400000000    -0.360416   
O95      O      0.280230000000     0.671540000000     0.280420000000    -0.36032    
O96      O      0.318550000000     0.780370000000     0.282150000000    -0.362441   
O97      O      0.175600000000     0.707960000000     0.282150000000    -0.362552   
O98      O      0.218040000000     0.672410000000     0.283600000000    -0.361491   
O99      O      0.276110000000     0.815930000000     0.283600000000    -0.36144    
O100     O      0.177920000000     0.775340000000     0.287260000000    -0.367791   
O101     O      0.316220000000     0.713010000000     0.287280000000    -0.367551   
O102     O      0.247070000000     0.744170000000     0.264960000000    -0.592639   
O103     O      0.429550000000     0.965040000000     0.539550000000    -0.36975    
O104     O      0.064600000000     0.523290000000     0.539540000000    -0.369818   
O105     O      0.026980000000     0.921880000000     0.532930000000    -0.368268   
O106     O      0.467170000000     0.566450000000     0.532940000000    -0.368159   
O107     O      0.063270000000     0.963080000000     0.539860000000    -0.369631   
O108     O      0.430880000000     0.525240000000     0.539880000000    -0.369428   
O109     O      0.028930000000     0.565160000000     0.533430000000    -0.366312   
O110     O      0.465230000000     0.923170000000     0.533430000000    -0.366215   
O111     O      0.424070000000     0.527260000000     0.972040000000    -0.359968   
O112     O      0.070070000000     0.961080000000     0.972020000000    -0.35988    
O113     O      0.460720000000     0.922990000000     0.970640000000    -0.362944   
O114     O      0.033420000000     0.565340000000     0.970640000000    -0.36296    
O115     O      0.069330000000     0.523280000000     0.969060000000    -0.361112   
O116     O      0.424810000000     0.965050000000     0.969070000000    -0.361109   
O117     O      0.465980000000     0.562810000000     0.965190000000    -0.368272   
O118     O      0.028160000000     0.925530000000     0.965170000000    -0.36815    
O119     O      0.497070000000     0.994170000000     0.487650000000    -0.592866   
O120     O      0.276220000000     0.811210000000     0.712970000000    -0.370323   
O121     O      0.217940000000     0.677120000000     0.712970000000    -0.370167   
O122     O      0.319780000000     0.714300000000     0.719650000000    -0.367705   
O123     O      0.174370000000     0.774030000000     0.719630000000    -0.367703   
O124     O      0.278060000000     0.678580000000     0.712470000000    -0.370067   
O125     O      0.216100000000     0.809740000000     0.712460000000    -0.369989   
O126     O      0.175550000000     0.712230000000     0.719350000000    -0.36555    
O127     O      0.318600000000     0.776100000000     0.719350000000    -0.365659   
O128     O      0.213910000000     0.816800000000     0.780400000000    -0.360416   
O129     O      0.280230000000     0.671540000000     0.780420000000    -0.360383   
O130     O      0.318550000000     0.780370000000     0.782150000000    -0.362447   
O131     O      0.175600000000     0.707960000000     0.782150000000    -0.362552   
O132     O      0.218040000000     0.672410000000     0.783600000000    -0.361489   
O133     O      0.276110000000     0.815930000000     0.783600000000    -0.361442   
O134     O      0.177920000000     0.775340000000     0.787260000000    -0.367791   
O135     O      0.316220000000     0.713010000000     0.787280000000    -0.367586   
O136     O      0.247070000000     0.744170000000     0.764960000000    -0.592631   
O137     O      0.929550000000     0.465040000000     0.039550000000    -0.369803   
O138     O      0.564600000000     0.023290000000     0.039540000000    -0.369771   
O139     O      0.526980000000     0.421880000000     0.032930000000    -0.368316   
O140     O      0.967170000000     0.066450000000     0.032940000000    -0.368199   
O141     O      0.563280000000     0.463080000000     0.039860000000    -0.369524   
O142     O      0.930880000000     0.025240000000     0.039880000000    -0.369439   
O143     O      0.528930000000     0.065160000000     0.033430000000    -0.366382   
O144     O      0.965230000000     0.423170000000     0.033430000000    -0.366252   
O145     O      0.924070000000     0.027260000000     0.472040000000    -0.35991    
O146     O      0.570070000000     0.461080000000     0.472020000000    -0.359978   
O147     O      0.960720000000     0.422990000000     0.470640000000    -0.362915   
O148     O      0.533420000000     0.065340000000     0.470640000000    -0.363015   
O149     O      0.569330000000     0.023280000000     0.469060000000    -0.361082   
O150     O      0.924810000000     0.465060000000     0.469070000000    -0.361087   
O151     O      0.965980000000     0.062810000000     0.465190000000    -0.368214   
O152     O      0.528160000000     0.425530000000     0.465170000000    -0.368169   
O153     O      0.997070000000     0.494170000000     0.987650000000    -0.592829   
O154     O      0.776210000000     0.311210000000     0.212970000000    -0.370154   
O155     O      0.717940000000     0.177120000000     0.212970000000    -0.370186   
O156     O      0.819780000000     0.214300000000     0.219650000000    -0.36769    
O157     O      0.674370000000     0.274030000000     0.219630000000    -0.367764   
O158     O      0.778060000000     0.178580000000     0.212470000000    -0.370048   
O159     O      0.716090000000     0.309740000000     0.212460000000    -0.370054   
O160     O      0.675550000000     0.212230000000     0.219350000000    -0.365566   
O161     O      0.818600000000     0.276100000000     0.219360000000    -0.36558    
O162     O      0.713910000000     0.316800000000     0.280400000000    -0.360341   
O163     O      0.780230000000     0.171540000000     0.280420000000    -0.360367   
O164     O      0.818550000000     0.280370000000     0.282150000000    -0.362385   
O165     O      0.675600000000     0.207960000000     0.282150000000    -0.362551   
O166     O      0.718040000000     0.172410000000     0.283600000000    -0.361489   
O167     O      0.776100000000     0.315930000000     0.283600000000    -0.361277   
O168     O      0.677920000000     0.275340000000     0.287260000000    -0.367781   
O169     O      0.816220000000     0.213000000000     0.287280000000    -0.367644   
O170     O      0.747070000000     0.244170000000     0.264960000000    -0.592683   
O171     O      0.929550000000     0.465040000000     0.539550000000    -0.369749   
O172     O      0.564600000000     0.023290000000     0.539540000000    -0.36977    
O173     O      0.526980000000     0.421880000000     0.532930000000    -0.368293   
O174     O      0.967170000000     0.066450000000     0.532940000000    -0.368165   
O175     O      0.563280000000     0.463080000000     0.539860000000    -0.369524   
O176     O      0.930880000000     0.025240000000     0.539880000000    -0.36938    
O177     O      0.528930000000     0.065160000000     0.533430000000    -0.36636    
O178     O      0.965230000000     0.423170000000     0.533430000000    -0.366221   
O179     O      0.924070000000     0.027260000000     0.972040000000    -0.359914   
O180     O      0.570070000000     0.461080000000     0.972020000000    -0.359952   
O181     O      0.960720000000     0.422990000000     0.970640000000    -0.362901   
O182     O      0.533420000000     0.065340000000     0.970640000000    -0.363006   
O183     O      0.569330000000     0.023280000000     0.969060000000    -0.361057   
O184     O      0.924810000000     0.465060000000     0.969070000000    -0.361003   
O185     O      0.965980000000     0.062810000000     0.965190000000    -0.368263   
O186     O      0.528160000000     0.425530000000     0.965170000000    -0.368164   
O187     O      0.997070000000     0.494170000000     0.487650000000    -0.592875   
O188     O      0.776210000000     0.311210000000     0.712970000000    -0.370178   
O189     O      0.717940000000     0.177120000000     0.712970000000    -0.370169   
O190     O      0.819780000000     0.214300000000     0.719650000000    -0.367688   
O191     O      0.674370000000     0.274030000000     0.719630000000    -0.367746   
O192     O      0.778060000000     0.178580000000     0.712470000000    -0.37005    
O193     O      0.716090000000     0.309740000000     0.712460000000    -0.370032   
O194     O      0.675550000000     0.212230000000     0.719350000000    -0.365548   
O195     O      0.818600000000     0.276100000000     0.719350000000    -0.365596   
O196     O      0.713910000000     0.316800000000     0.780400000000    -0.360341   
O197     O      0.780230000000     0.171540000000     0.780420000000    -0.36043    
O198     O      0.818550000000     0.280370000000     0.782150000000    -0.36239    
O199     O      0.675600000000     0.207960000000     0.782150000000    -0.362551   
O200     O      0.718040000000     0.172410000000     0.783600000000    -0.361487   
O201     O      0.776100000000     0.315930000000     0.783600000000    -0.361279   
O202     O      0.677920000000     0.275340000000     0.787260000000    -0.36778    
O203     O      0.816220000000     0.213000000000     0.787280000000    -0.367679   
O204     O      0.747070000000     0.244170000000     0.764960000000    -0.592676   
O205     O      0.929550000000     0.965040000000     0.039550000000    -0.369806   
O206     O      0.564600000000     0.523290000000     0.039540000000    -0.369819   
O207     O      0.526980000000     0.921880000000     0.032930000000    -0.368321   
O208     O      0.967170000000     0.566450000000     0.032940000000    -0.368199   
O209     O      0.563280000000     0.963080000000     0.039860000000    -0.369534   
O210     O      0.930880000000     0.525240000000     0.039880000000    -0.369489   
O211     O      0.528930000000     0.565160000000     0.033430000000    -0.366382   
O212     O      0.965230000000     0.923170000000     0.033430000000    -0.366254   
O213     O      0.924070000000     0.527260000000     0.472040000000    -0.359949   
O214     O      0.570070000000     0.961080000000     0.472020000000    -0.359899   
O215     O      0.960720000000     0.922990000000     0.470640000000    -0.362964   
O216     O      0.533420000000     0.565340000000     0.470640000000    -0.363016   
O217     O      0.569330000000     0.523280000000     0.469060000000    -0.36113    
O218     O      0.924810000000     0.965050000000     0.469070000000    -0.361196   
O219     O      0.965980000000     0.562810000000     0.465190000000    -0.368216   
O220     O      0.528160000000     0.925530000000     0.465170000000    -0.368204   
O221     O      0.997070000000     0.994170000000     0.987650000000    -0.592846   
O222     O      0.776210000000     0.811210000000     0.212970000000    -0.370209   
O223     O      0.717940000000     0.677120000000     0.212970000000    -0.370185   
O224     O      0.819780000000     0.714300000000     0.219650000000    -0.36771    
O225     O      0.674370000000     0.774030000000     0.219630000000    -0.367772   
O226     O      0.778060000000     0.678580000000     0.212470000000    -0.370066   
O227     O      0.716090000000     0.809740000000     0.212460000000    -0.370105   
O228     O      0.675550000000     0.712230000000     0.219350000000    -0.365568   
O229     O      0.818600000000     0.776100000000     0.219360000000    -0.365592   
O230     O      0.713910000000     0.816800000000     0.280400000000    -0.360406   
O231     O      0.780230000000     0.671540000000     0.280420000000    -0.360319   
O232     O      0.818550000000     0.780370000000     0.282150000000    -0.36239    
O233     O      0.675600000000     0.707960000000     0.282150000000    -0.362554   
O234     O      0.718040000000     0.672410000000     0.283600000000    -0.361491   
O235     O      0.776100000000     0.815930000000     0.283600000000    -0.361339   
O236     O      0.677920000000     0.775340000000     0.287260000000    -0.367791   
O237     O      0.816220000000     0.713010000000     0.287280000000    -0.36755    
O238     O      0.747070000000     0.744170000000     0.264960000000    -0.592638   
O239     O      0.929550000000     0.965040000000     0.539550000000    -0.369752   
O240     O      0.564600000000     0.523290000000     0.539540000000    -0.369819   
O241     O      0.526980000000     0.921880000000     0.532930000000    -0.368298   
O242     O      0.967170000000     0.566450000000     0.532940000000    -0.368165   
O243     O      0.563280000000     0.963080000000     0.539860000000    -0.369534   
O244     O      0.930880000000     0.525240000000     0.539880000000    -0.36943    
O245     O      0.528930000000     0.565160000000     0.533430000000    -0.366361   
O246     O      0.965230000000     0.923170000000     0.533430000000    -0.366222   
O247     O      0.924070000000     0.527260000000     0.972040000000    -0.359954   
O248     O      0.570070000000     0.961080000000     0.972020000000    -0.359873   
O249     O      0.960720000000     0.922990000000     0.970640000000    -0.36295    
O250     O      0.533420000000     0.565340000000     0.970640000000    -0.363007   
O251     O      0.569330000000     0.523280000000     0.969060000000    -0.361105   
O252     O      0.924810000000     0.965050000000     0.969070000000    -0.361111   
O253     O      0.965980000000     0.562810000000     0.965190000000    -0.368265   
O254     O      0.528160000000     0.925530000000     0.965170000000    -0.368199   
O255     O      0.997070000000     0.994170000000     0.487650000000    -0.592891   
O256     O      0.776210000000     0.811210000000     0.712970000000    -0.370233   
O257     O      0.717940000000     0.677120000000     0.712970000000    -0.370167   
O258     O      0.819780000000     0.714300000000     0.719650000000    -0.367708   
O259     O      0.674370000000     0.774030000000     0.719630000000    -0.367754   
O260     O      0.778060000000     0.678580000000     0.712470000000    -0.370067   
O261     O      0.716090000000     0.809740000000     0.712460000000    -0.370084   
O262     O      0.675550000000     0.712230000000     0.719350000000    -0.36555    
O263     O      0.818600000000     0.776100000000     0.719350000000    -0.365609   
O264     O      0.713910000000     0.816800000000     0.780400000000    -0.360406   
O265     O      0.780230000000     0.671540000000     0.780420000000    -0.360382   
O266     O      0.818550000000     0.780370000000     0.782150000000    -0.362396   
O267     O      0.675600000000     0.707960000000     0.782150000000    -0.362554   
O268     O      0.718040000000     0.672410000000     0.783600000000    -0.361489   
O269     O      0.776100000000     0.815930000000     0.783600000000    -0.36134    
O270     O      0.677920000000     0.775340000000     0.787260000000    -0.36779    
O271     O      0.816220000000     0.713010000000     0.787280000000    -0.367585   
O272     O      0.747070000000     0.744170000000     0.764960000000    -0.59263    


