data_structure

_audit_creation_method RASPA-1.0
_audit_creation_date 2023-5-9
_audit_author_name 'Poobodin Mano'

_cell_length_a    49.3003
_cell_length_b    49.3395
_cell_length_c    49.5043
_cell_angle_alpha 90
_cell_angle_beta  90
_cell_angle_gamma 90
_cell_volume      120417

_symmetry_cell_setting          triclinic
_symmetry_space_group_name_Hall 'P 1'
_symmetry_space_group_name_H-M  'P 1'
_symmetry_Int_Tables_number     1

_symmetry_equiv_pos_as_xyz 'x,y,z'

loop_
_atom_site_label
_atom_site_type_symbol
_atom_site_fract_x
_atom_site_fract_y
_atom_site_fract_z
_atom_site_charge
C1       C      0.485360000000     0.055580000000     0.197120000000     0.352169   
C2       C      0.059930000000     0.496640000000     0.300310000000     0.348775   
C3       C      0.489450000000     0.065990000000     0.295870000000     0.349364   
C4       C      0.055470000000     0.489800000000     0.201000000000     0.351476   
C5       C      0.007250000000     0.439710000000     0.209250000000     0.34317    
C6       C      0.441640000000     0.011920000000     0.299580000000     0.343194   
C7       C      0.437870000000     0.004980000000     0.206130000000     0.343346   
C8       C      0.006510000000     0.448160000000     0.302150000000     0.343501   
C9       C      0.012940000000     0.198480000000     0.054840000000     0.352406   
C10      C      0.444810000000     0.302990000000     0.493260000000     0.348896   
C11      C      0.014090000000     0.302080000000     0.061010000000     0.349398   
C12      C      0.446420000000     0.202950000000     0.488030000000     0.351694   
C13      C      0.495250000000     0.208770000000     0.438670000000     0.343783   
C14      C      0.063450000000     0.296310000000     0.009710000000     0.34356    
C15      C      0.063540000000     0.207950000000     0.006150000000     0.343818   
C16      C      0.496410000000     0.303050000000     0.443940000000     0.344507   
C17      C      0.296200000000     0.440210000000     0.007730000000     0.344533   
C18      C      0.206170000000     0.009800000000     0.439190000000     0.344754   
C19      C      0.205610000000     0.440290000000     0.005940000000     0.34334    
C20      C      0.294650000000     0.007930000000     0.438780000000     0.343248   
C21      C      0.304320000000     0.056640000000     0.487010000000     0.351498   
C22      C      0.197480000000     0.487510000000     0.055010000000     0.351497   
C23      C      0.300970000000     0.492120000000     0.056900000000     0.349729   
C24      C      0.200800000000     0.059000000000     0.492380000000     0.35053    
C25      C      0.395210000000     0.355040000000     0.020430000000    -0.0638251  
C26      C      0.374160000000     0.353660000000     0.501360000000     0.0224369  
C27      C      0.376010000000     0.334790000000     0.480190000000    -0.0639167  
C28      C      0.398660000000     0.317870000000     0.477920000000     0.0219701  
C29      C      0.420160000000     0.319850000000     0.496490000000    -0.0981233  
C30      C      0.418080000000     0.338470000000     0.017910000000     0.0222576  
C31      C      0.351480000000     0.373360000000     0.002380000000     0.0228378  
C32      C      0.337400000000     0.378340000000     0.026590000000    -0.0638817  
C33      C      0.317970000000     0.399020000000     0.027980000000     0.0217265  
C34      C      0.312800000000     0.415400000000     0.005350000000    -0.0972786  
C35      C      0.326200000000     0.409730000000     0.480940000000     0.022708   
C36      C      0.345150000000     0.388780000000     0.479400000000    -0.0639926  
C37      C      0.334250000000     0.127370000000     0.982610000000    -0.0639122  
C38      C      0.361580000000     0.122440000000     0.489070000000     0.0230361  
C39      C      0.369830000000     0.095710000000     0.494540000000    -0.063764   
C40      C      0.351210000000     0.074480000000     0.493960000000     0.0230567  
C41      C      0.323870000000     0.079360000000     0.487640000000    -0.0993549  
C42      C      0.315580000000     0.106020000000     0.981850000000     0.0220486  
C43      C      0.381670000000     0.144840000000     0.490070000000     0.0231469  
C44      C      0.381530000000     0.165680000000     0.970640000000    -0.0635956  
C45      C      0.401990000000     0.185370000000     0.970490000000     0.0231541  
C46      C      0.423020000000     0.184370000000     0.489610000000    -0.0996803  
C47      C      0.422500000000     0.164210000000     0.509630000000     0.0235497  
C48      C      0.401990000000     0.144810000000     0.509970000000    -0.0637298  
C49      C      0.128870000000     0.332850000000     0.026090000000    -0.0627668  
C50      C      0.133310000000     0.347680000000     0.002180000000     0.0232111  
C51      C      0.116350000000     0.342690000000     0.479840000000    -0.0633453  
C52      C      0.094240000000     0.325170000000     0.482040000000     0.0219863  
C53      C      0.089000000000     0.311570000000     0.006370000000    -0.096811   
C54      C      0.107050000000     0.314780000000     0.028070000000     0.0223134  
C55      C      0.153580000000     0.370150000000     0.001300000000     0.0221413  
C56      C      0.147430000000     0.394100000000     0.987170000000    -0.0627524  
C57      C      0.164930000000     0.416240000000     0.987880000000     0.0193755  
C58      C      0.189020000000     0.415350000000     0.003060000000    -0.0949208  
C59      C      0.195700000000     0.391230000000     0.016650000000     0.0192987  
C60      C      0.178190000000     0.368820000000     0.015720000000    -0.0621121  
C61      C      0.109150000000     0.152490000000     0.480110000000    -0.064042   
C62      C      0.129360000000     0.151420000000     0.999940000000     0.0205685  
C63      C      0.129920000000     0.171320000000     0.020250000000    -0.0621393  
C64      C      0.109330000000     0.190960000000     0.021670000000     0.019337   
C65      C      0.088120000000     0.190980000000     0.002640000000    -0.0955193  
C66      C      0.088920000000     0.172110000000     0.481310000000     0.0208417  
C67      C      0.148250000000     0.128160000000     0.500170000000     0.0228249  
C68      C      0.137730000000     0.101740000000     0.501150000000    -0.0646952  
C69      C      0.154900000000     0.079360000000     0.499270000000     0.0225795  
C70      C      0.182970000000     0.082900000000     0.495910000000    -0.099362   
C71      C      0.193580000000     0.109410000000     0.995410000000     0.0221186  
C72      C      0.176340000000     0.131890000000     0.997770000000    -0.0652118  
C73      C      0.369330000000     0.016530000000     0.326080000000    -0.0628132  
C74      C      0.371880000000     0.004370000000     0.351670000000     0.0225925  
C75      C      0.397270000000     0.493940000000     0.359370000000    -0.0629018  
C76      C      0.419600000000     0.495900000000     0.342200000000     0.0202467  
C77      C      0.417260000000     0.008510000000     0.316840000000    -0.0954578  
C78      C      0.391790000000     0.018550000000     0.308820000000     0.019335   
C79      C      0.348790000000     0.003630000000     0.371060000000     0.0230671  
C80      C      0.331560000000     0.026160000000     0.374240000000    -0.0625513  
C81      C      0.312560000000     0.026930000000     0.395270000000     0.0212478  
C82      C      0.310640000000     0.005300000000     0.413640000000    -0.0956358  
C83      C      0.326630000000     0.482120000000     0.409400000000     0.0216115  
C84      C      0.345320000000     0.481210000000     0.388270000000    -0.06338    
C85      C      0.128060000000     0.481720000000     0.332690000000    -0.0638288  
C86      C      0.130810000000     0.503670000000     0.350580000000     0.0225225  
C87      C      0.110850000000     0.023960000000     0.350740000000    -0.0641975  
C88      C      0.088060000000     0.021850000000     0.334090000000     0.022955   
C89      C      0.084950000000     0.499590000000     0.316610000000    -0.0980338  
C90      C      0.105470000000     0.479830000000     0.315660000000     0.0218696  
C91      C      0.153050000000     0.004320000000     0.370750000000     0.0228396  
C92      C      0.157820000000     0.481600000000     0.387130000000    -0.0635735  
C93      C      0.176020000000     0.483130000000     0.408690000000     0.0218069  
C94      C      0.190170000000     0.007260000000     0.414060000000    -0.096725   
C95      C      0.186600000000     0.029540000000     0.396740000000     0.0215807  
C96      C      0.167960000000     0.028170000000     0.375420000000    -0.0636422  
C97      C      0.120490000000     0.472200000000     0.164180000000    -0.063642   
C98      C      0.120030000000     0.491020000000     0.142820000000     0.0230852  
C99      C      0.099330000000     0.010600000000     0.142170000000    -0.0630889  
C100     C      0.078810000000     0.010510000000     0.161500000000     0.0240109  
C101     C      0.078680000000     0.491100000000     0.182230000000    -0.09996    
C102     C      0.100040000000     0.472320000000     0.183810000000     0.0229457  
C103     C      0.140170000000     0.489680000000     0.120540000000     0.0230872  
C104     C      0.167600000000     0.483670000000     0.125590000000    -0.0637063  
C105     C      0.186310000000     0.482730000000     0.104330000000     0.0222432  
C106     C      0.177950000000     0.487940000000     0.077670000000    -0.0991491  
C107     C      0.150510000000     0.493690000000     0.072680000000     0.0234511  
C108     C      0.131860000000     0.494400000000     0.093790000000    -0.0638177  
C109     C      0.325610000000     0.995810000000     0.129610000000    -0.0647814  
C110     C      0.353700000000     0.498390000000     0.125930000000     0.0226702  
C111     C      0.364160000000     0.499970000000     0.099590000000    -0.064525   
C112     C      0.346940000000     0.498550000000     0.077270000000     0.02213    
C113     C      0.318880000000     0.495070000000     0.080770000000    -0.0987444  
C114     C      0.308340000000     0.993910000000     0.107200000000     0.0218411  
C115     C      0.372610000000     0.998050000000     0.149150000000     0.0202778  
C116     C      0.370960000000     0.017420000000     0.169920000000    -0.0616791  
C117     C      0.391380000000     0.018960000000     0.189670000000     0.0185833  
C118     C      0.413520000000     0.000960000000     0.188960000000    -0.094752   
C119     C      0.413870000000     0.480460000000     0.169180000000     0.0205697  
C120     C      0.393800000000     0.479160000000     0.149460000000    -0.0639462  
C121     C      0.018880000000     0.120850000000     0.339890000000    -0.0645886  
C122     C      0.495820000000     0.136320000000     0.346460000000     0.0232044  
C123     C      0.471130000000     0.130300000000     0.333410000000    -0.0631699  
C124     C      0.469270000000     0.108300000000     0.315560000000     0.0231931  
C125     C      0.491930000000     0.091720000000     0.310860000000    -0.0991282  
C126     C      0.016860000000     0.098610000000     0.322640000000     0.0236363  
C127     C      0.497120000000     0.156600000000     0.368780000000     0.021921   
C128     C      0.013110000000     0.151160000000     0.391660000000    -0.0632054  
C129     C      0.013220000000     0.168730000000     0.413650000000     0.0201085  
C130     C      0.497070000000     0.192210000000     0.413700000000    -0.0958275  
C131     C      0.481540000000     0.198200000000     0.390620000000     0.0193906  
C132     C      0.481570000000     0.180560000000     0.368360000000    -0.062637   
C133     C      0.509840000000     0.376800000000     0.331050000000    -0.0635797  
C134     C      0.000010000000     0.381160000000     0.357310000000     0.0218062  
C135     C      0.990580000000     0.406980000000     0.364510000000    -0.0639274  
C136     C      0.991850000000     0.428380000000     0.346210000000     0.0213247  
C137     C      0.002870000000     0.424550000000     0.320290000000    -0.0976279  
C138     C      0.511420000000     0.398390000000     0.312700000000     0.0195828  
C139     C      0.501100000000     0.359640000000     0.378060000000     0.0219313  
C140     C      0.488490000000     0.334410000000     0.374130000000    -0.0635771  
C141     C      0.487490000000     0.315450000000     0.395240000000     0.0195449  
C142     C      0.499400000000     0.321400000000     0.420410000000    -0.0968776  
C143     C      0.013130000000     0.346190000000     0.423620000000     0.0196777  
C144     C      0.013830000000     0.365090000000     0.402780000000    -0.0637355  
C145     C      0.483030000000     0.388380000000     0.158390000000    -0.0637598  
C146     C      0.006320000000     0.372380000000     0.154650000000     0.0221179  
C147     C      0.028610000000     0.376250000000     0.172010000000    -0.0630219  
C148     C      0.028280000000     0.397020000000     0.191330000000     0.0211724  
C149     C      0.005750000000     0.414350000000     0.193430000000    -0.0973506  
C150     C      0.482820000000     0.409220000000     0.177410000000     0.0222623  
C151     C      0.008070000000     0.353690000000     0.131130000000     0.0219895  
C152     C      0.520570000000     0.328140000000     0.133150000000    -0.0633378  
C153     C      0.522530000000     0.311200000000     0.110480000000     0.0204352  
C154     C      0.012140000000     0.319560000000     0.085330000000    -0.098374   
C155     C      0.999710000000     0.345120000000     0.083440000000     0.0217911  
C156     C      0.997760000000     0.361930000000     0.105960000000    -0.063076   
C157     C      0.485510000000     0.093170000000     0.131000000000    -0.0643768  
C158     C      0.494930000000     0.118990000000     0.138680000000     0.0231434  
C159     C      0.999230000000     0.124260000000     0.166330000000    -0.0635152  
C160     C      0.994960000000     0.103970000000     0.185620000000     0.0238393  
C161     C      0.486930000000     0.077920000000     0.177540000000    -0.101017   
C162     C      0.481970000000     0.072790000000     0.150150000000     0.0253922  
C163     C      0.000790000000     0.139880000000     0.117740000000     0.0217067  
C164     C      0.010450000000     0.132030000000     0.092140000000    -0.0639209  
C165     C      0.014630000000     0.151190000000     0.071890000000     0.0245381  
C166     C      0.010040000000     0.178760000000     0.076940000000    -0.100669   
C167     C      0.501530000000     0.186950000000     0.102720000000     0.0238384  
C168     C      0.496650000000     0.167660000000     0.122870000000    -0.0641743  
C169     C      0.485360000000     0.055580000000     0.697120000000     0.35227    
C170     C      0.059930000000     0.496640000000     0.800310000000     0.348805   
C171     C      0.489450000000     0.065990000000     0.795870000000     0.349364   
C172     C      0.055470000000     0.489800000000     0.701000000000     0.351259   
C173     C      0.007240000000     0.439710000000     0.709250000000     0.343136   
C174     C      0.441640000000     0.011920000000     0.799580000000     0.343191   
C175     C      0.437870000000     0.004980000000     0.706130000000     0.343348   
C176     C      0.006510000000     0.448160000000     0.802140000000     0.343591   
C177     C      0.012940000000     0.198480000000     0.554830000000     0.352505   
C178     C      0.444810000000     0.302990000000     0.993260000000     0.348831   
C179     C      0.014090000000     0.302080000000     0.561010000000     0.349328   
C180     C      0.446410000000     0.202950000000     0.988030000000     0.351736   
C181     C      0.495240000000     0.208770000000     0.938670000000     0.343825   
C182     C      0.063450000000     0.296310000000     0.509710000000     0.343146   
C183     C      0.063540000000     0.207950000000     0.506150000000     0.343858   
C184     C      0.496410000000     0.303050000000     0.943940000000     0.344311   
C185     C      0.296200000000     0.440200000000     0.507730000000     0.344408   
C186     C      0.206170000000     0.009800000000     0.939190000000     0.344824   
C187     C      0.205610000000     0.440300000000     0.505940000000     0.343191   
C188     C      0.294650000000     0.007940000000     0.938780000000     0.343244   
C189     C      0.304310000000     0.056640000000     0.987010000000     0.351381   
C190     C      0.197480000000     0.487510000000     0.555010000000     0.351434   
C191     C      0.300970000000     0.492120000000     0.556900000000     0.349763   
C192     C      0.200800000000     0.059000000000     0.992380000000     0.350501   
C193     C      0.395210000000     0.355040000000     0.520430000000    -0.0635364  
C194     C      0.374160000000     0.353660000000     0.001360000000     0.0229468  
C195     C      0.376010000000     0.334790000000     0.980190000000    -0.0644688  
C196     C      0.398660000000     0.317870000000     0.977920000000     0.022201   
C197     C      0.420160000000     0.319850000000     0.996500000000    -0.098637   
C198     C      0.418080000000     0.338470000000     0.517910000000     0.0216448  
C199     C      0.351480000000     0.373350000000     0.502380000000     0.0226096  
C200     C      0.337400000000     0.378340000000     0.526590000000    -0.0638843  
C201     C      0.317970000000     0.399020000000     0.527990000000     0.0217371  
C202     C      0.312800000000     0.415400000000     0.505350000000    -0.097713   
C203     C      0.326200000000     0.409740000000     0.980940000000     0.0223031  
C204     C      0.345150000000     0.388780000000     0.979400000000    -0.064221   
C205     C      0.334260000000     0.127360000000     0.482610000000    -0.0638488  
C206     C      0.361580000000     0.122440000000     0.989080000000     0.0230932  
C207     C      0.369830000000     0.095720000000     0.994550000000    -0.0638567  
C208     C      0.351200000000     0.074490000000     0.993970000000     0.0230353  
C209     C      0.323870000000     0.079370000000     0.987640000000    -0.0992154  
C210     C      0.315590000000     0.106020000000     0.481850000000     0.0221374  
C211     C      0.381670000000     0.144850000000     0.990080000000     0.0228193  
C212     C      0.381540000000     0.165670000000     0.470640000000    -0.0635859  
C213     C      0.401990000000     0.185360000000     0.470490000000     0.0230997  
C214     C      0.423010000000     0.184380000000     0.989620000000    -0.100132   
C215     C      0.422490000000     0.164210000000     0.009640000000     0.0239653  
C216     C      0.401990000000     0.144820000000     0.009980000000    -0.0634326  
C217     C      0.128880000000     0.332850000000     0.526090000000    -0.0626831  
C218     C      0.133320000000     0.347680000000     0.502180000000     0.0228371  
C219     C      0.116350000000     0.342690000000     0.979840000000    -0.0637326  
C220     C      0.094240000000     0.325170000000     0.982040000000     0.0217557  
C221     C      0.089000000000     0.311570000000     0.506370000000    -0.0970132  
C222     C      0.107050000000     0.314770000000     0.528070000000     0.0222361  
C223     C      0.153580000000     0.370150000000     0.501300000000     0.0218804  
C224     C      0.147430000000     0.394110000000     0.487180000000    -0.0625269  
C225     C      0.164930000000     0.416240000000     0.487890000000     0.0198221  
C226     C      0.189020000000     0.415360000000     0.503060000000    -0.0952463  
C227     C      0.195710000000     0.391230000000     0.516650000000     0.0192364  
C228     C      0.178190000000     0.368820000000     0.515710000000    -0.0620884  
C229     C      0.109140000000     0.152490000000     0.980110000000    -0.063501   
C230     C      0.129370000000     0.151430000000     0.499940000000     0.0217343  
C231     C      0.129930000000     0.171320000000     0.520250000000    -0.0629851  
C232     C      0.109340000000     0.190960000000     0.521680000000     0.0196805  
C233     C      0.088130000000     0.190980000000     0.502640000000    -0.0960966  
C234     C      0.088910000000     0.172100000000     0.981310000000     0.0201607  
C235     C      0.148240000000     0.128160000000     0.000170000000     0.0238174  
C236     C      0.137720000000     0.101740000000     0.001150000000    -0.0646763  
C237     C      0.154900000000     0.079360000000     0.999270000000     0.0223414  
C238     C      0.182970000000     0.082900000000     0.995910000000    -0.0994422  
C239     C      0.193580000000     0.109420000000     0.495410000000     0.0219584  
C240     C      0.176350000000     0.131890000000     0.497770000000    -0.0645464  
C241     C      0.369330000000     0.016530000000     0.826080000000    -0.0628155  
C242     C      0.371880000000     0.004370000000     0.851670000000     0.0226033  
C243     C      0.397270000000     0.493940000000     0.859370000000    -0.062935   
C244     C      0.419600000000     0.495900000000     0.842200000000     0.0203161  
C245     C      0.417260000000     0.008510000000     0.816840000000    -0.0954494  
C246     C      0.391790000000     0.018550000000     0.808820000000     0.0193351  
C247     C      0.348790000000     0.003630000000     0.871060000000     0.0230396  
C248     C      0.331560000000     0.026160000000     0.874250000000    -0.0625006  
C249     C      0.312560000000     0.026930000000     0.895280000000     0.021239   
C250     C      0.310640000000     0.005300000000     0.913640000000    -0.0956349  
C251     C      0.326630000000     0.482120000000     0.909400000000     0.0216108  
C252     C      0.345320000000     0.481220000000     0.888270000000    -0.0633368  
C253     C      0.128060000000     0.481720000000     0.832690000000    -0.0638289  
C254     C      0.130810000000     0.503670000000     0.850580000000     0.0225175  
C255     C      0.110850000000     0.023960000000     0.850740000000    -0.0641997  
C256     C      0.088060000000     0.021850000000     0.834090000000     0.0229527  
C257     C      0.084950000000     0.499590000000     0.816610000000    -0.098045   
C258     C      0.105470000000     0.479830000000     0.815660000000     0.0218733  
C259     C      0.153050000000     0.004320000000     0.870750000000     0.02283    
C260     C      0.157820000000     0.481600000000     0.887130000000    -0.0636098  
C261     C      0.176020000000     0.483130000000     0.908680000000     0.0218404  
C262     C      0.190170000000     0.007260000000     0.914050000000    -0.0966702  
C263     C      0.186600000000     0.029540000000     0.896740000000     0.021575   
C264     C      0.167960000000     0.028170000000     0.875420000000    -0.0636384  
C265     C      0.120490000000     0.472200000000     0.664180000000    -0.0636261  
C266     C      0.120030000000     0.491020000000     0.642820000000     0.0230719  
C267     C      0.099330000000     0.010600000000     0.642170000000    -0.0631001  
C268     C      0.078810000000     0.010510000000     0.661500000000     0.0240329  
C269     C      0.078680000000     0.491100000000     0.682230000000    -0.0998803  
C270     C      0.100040000000     0.472320000000     0.683810000000     0.0229102  
C271     C      0.140170000000     0.489680000000     0.620540000000     0.0230692  
C272     C      0.167600000000     0.483670000000     0.625590000000    -0.0636984  
C273     C      0.186310000000     0.482730000000     0.604340000000     0.022191   
C274     C      0.177950000000     0.487940000000     0.577680000000    -0.0990532  
C275     C      0.150510000000     0.493700000000     0.572680000000     0.0233513  
C276     C      0.131860000000     0.494400000000     0.593790000000    -0.0637906  
C277     C      0.325610000000     0.995820000000     0.629610000000    -0.0648174  
C278     C      0.353700000000     0.498390000000     0.625930000000     0.0226832  
C279     C      0.364160000000     0.499960000000     0.599590000000    -0.0645477  
C280     C      0.346940000000     0.498550000000     0.577270000000     0.0221331  
C281     C      0.318880000000     0.495070000000     0.580770000000    -0.0987866  
C282     C      0.308340000000     0.993910000000     0.607200000000     0.0218797  
C283     C      0.372610000000     0.998060000000     0.649150000000     0.0202304  
C284     C      0.370970000000     0.017420000000     0.669920000000    -0.0616228  
C285     C      0.391380000000     0.018960000000     0.689670000000     0.0185706  
C286     C      0.413520000000     0.000960000000     0.688960000000    -0.0947395  
C287     C      0.413870000000     0.480460000000     0.669180000000     0.0204951  
C288     C      0.393800000000     0.479160000000     0.649460000000    -0.0639034  
C289     C      0.018880000000     0.120850000000     0.839890000000    -0.0644861  
C290     C      0.495820000000     0.136320000000     0.846460000000     0.023198   
C291     C      0.471130000000     0.130300000000     0.833410000000    -0.0631696  
C292     C      0.469270000000     0.108300000000     0.815560000000     0.0231925  
C293     C      0.491930000000     0.091720000000     0.810860000000    -0.0991309  
C294     C      0.016860000000     0.098610000000     0.822640000000     0.0235483  
C295     C      0.497110000000     0.156600000000     0.868780000000     0.0219011  
C296     C      0.013100000000     0.151150000000     0.891660000000    -0.0632639  
C297     C      0.013220000000     0.168730000000     0.913650000000     0.020094   
C298     C      0.497070000000     0.192200000000     0.913710000000    -0.0958974  
C299     C      0.481540000000     0.198200000000     0.890620000000     0.0193638  
C300     C      0.481570000000     0.180560000000     0.868360000000    -0.0626299  
C301     C      0.509840000000     0.376800000000     0.831050000000    -0.0635826  
C302     C      0.000010000000     0.381150000000     0.857310000000     0.0217404  
C303     C      0.990580000000     0.406980000000     0.864510000000    -0.0638694  
C304     C      0.991850000000     0.428380000000     0.846210000000     0.0212634  
C305     C      0.002870000000     0.424550000000     0.820290000000    -0.0975584  
C306     C      0.511420000000     0.398390000000     0.812700000000     0.0196243  
C307     C      0.501100000000     0.359640000000     0.878060000000     0.0219125  
C308     C      0.488490000000     0.334410000000     0.874130000000    -0.0635672  
C309     C      0.487490000000     0.315450000000     0.895240000000     0.0195305  
C310     C      0.499390000000     0.321400000000     0.920410000000    -0.0968173  
C311     C      0.013130000000     0.346190000000     0.923620000000     0.0196639  
C312     C      0.013830000000     0.365090000000     0.902770000000    -0.0637498  
C313     C      0.483030000000     0.388380000000     0.658390000000    -0.0637656  
C314     C      0.006320000000     0.372380000000     0.654650000000     0.0220803  
C315     C      0.028600000000     0.376250000000     0.672010000000    -0.0629111  
C316     C      0.028280000000     0.397020000000     0.691330000000     0.0211239  
C317     C      0.005750000000     0.414350000000     0.693430000000    -0.0973176  
C318     C      0.482820000000     0.409220000000     0.677410000000     0.0222632  
C319     C      0.008060000000     0.353690000000     0.631130000000     0.0220114  
C320     C      0.520570000000     0.328140000000     0.633150000000    -0.0633219  
C321     C      0.522530000000     0.311200000000     0.610480000000     0.0204277  
C322     C      0.012140000000     0.319560000000     0.585330000000    -0.0983389  
C323     C      0.999700000000     0.345120000000     0.583440000000     0.0217362  
C324     C      0.997760000000     0.361930000000     0.605960000000    -0.0630744  
C325     C      0.485510000000     0.093170000000     0.631000000000    -0.0644114  
C326     C      0.494930000000     0.118980000000     0.638680000000     0.0231928  
C327     C      0.999230000000     0.124250000000     0.666330000000    -0.063486   
C328     C      0.994960000000     0.103970000000     0.685620000000     0.0238479  
C329     C      0.486930000000     0.077920000000     0.677540000000    -0.101066   
C330     C      0.481970000000     0.072790000000     0.650150000000     0.0254124  
C331     C      0.000790000000     0.139880000000     0.617740000000     0.0216856  
C332     C      0.010440000000     0.132030000000     0.592130000000    -0.0638995  
C333     C      0.014630000000     0.151190000000     0.571890000000     0.024564   
C334     C      0.010040000000     0.178760000000     0.576930000000    -0.100748   
C335     C      0.501530000000     0.186950000000     0.602720000000     0.0237796  
C336     C      0.496650000000     0.167660000000     0.622860000000    -0.0640785  
C337     C      0.485360000000     0.555580000000     0.197120000000     0.352352   
C338     C      0.059940000000     0.996640000000     0.300310000000     0.348418   
C339     C      0.489450000000     0.565990000000     0.295870000000     0.3493     
C340     C      0.055470000000     0.989800000000     0.201010000000     0.351317   
C341     C      0.007250000000     0.939710000000     0.209250000000     0.343252   
C342     C      0.441640000000     0.511910000000     0.299580000000     0.342907   
C343     C      0.437870000000     0.504980000000     0.206130000000     0.342992   
C344     C      0.006510000000     0.948160000000     0.302150000000     0.343586   
C345     C      0.012940000000     0.698480000000     0.054830000000     0.352535   
C346     C      0.444810000000     0.802990000000     0.493260000000     0.348899   
C347     C      0.014100000000     0.802080000000     0.061010000000     0.349597   
C348     C      0.446420000000     0.702950000000     0.488030000000     0.351666   
C349     C      0.495250000000     0.708770000000     0.438670000000     0.34388    
C350     C      0.063450000000     0.796310000000     0.009710000000     0.3435     
C351     C      0.063540000000     0.707950000000     0.006150000000     0.343803   
C352     C      0.496410000000     0.803050000000     0.443940000000     0.344541   
C353     C      0.296200000000     0.940210000000     0.007730000000     0.344626   
C354     C      0.206170000000     0.509800000000     0.439190000000     0.344322   
C355     C      0.205610000000     0.940300000000     0.005940000000     0.343236   
C356     C      0.294640000000     0.507930000000     0.438780000000     0.342739   
C357     C      0.304320000000     0.556640000000     0.487010000000     0.351556   
C358     C      0.197480000000     0.987510000000     0.055010000000     0.351466   
C359     C      0.300970000000     0.992120000000     0.056900000000     0.349777   
C360     C      0.200800000000     0.559000000000     0.492380000000     0.35057    
C361     C      0.395210000000     0.855040000000     0.020430000000    -0.0638519  
C362     C      0.374160000000     0.853660000000     0.501360000000     0.0224307  
C363     C      0.376010000000     0.834790000000     0.480190000000    -0.0639146  
C364     C      0.398660000000     0.817870000000     0.477920000000     0.0219684  
C365     C      0.420160000000     0.819850000000     0.496490000000    -0.0981232  
C366     C      0.418080000000     0.838470000000     0.017910000000     0.0222653  
C367     C      0.351480000000     0.873350000000     0.002380000000     0.0227917  
C368     C      0.337400000000     0.878340000000     0.026590000000    -0.0638632  
C369     C      0.317970000000     0.899020000000     0.027980000000     0.0217238  
C370     C      0.312800000000     0.915400000000     0.005350000000    -0.0973046  
C371     C      0.326200000000     0.909730000000     0.480940000000     0.0226451  
C372     C      0.345150000000     0.888770000000     0.479400000000    -0.063995   
C373     C      0.334250000000     0.627370000000     0.982610000000    -0.0639225  
C374     C      0.361580000000     0.622440000000     0.489070000000     0.0230449  
C375     C      0.369830000000     0.595710000000     0.494540000000    -0.0638097  
C376     C      0.351210000000     0.574480000000     0.493960000000     0.0230579  
C377     C      0.323870000000     0.579360000000     0.487640000000    -0.0994303  
C378     C      0.315580000000     0.606030000000     0.981850000000     0.0220241  
C379     C      0.381670000000     0.644840000000     0.490070000000     0.0231122  
C380     C      0.381540000000     0.665680000000     0.970640000000    -0.0635423  
C381     C      0.401990000000     0.685370000000     0.970490000000     0.0231408  
C382     C      0.423020000000     0.684370000000     0.489610000000    -0.0996764  
C383     C      0.422500000000     0.664210000000     0.509630000000     0.0235579  
C384     C      0.402000000000     0.644810000000     0.509970000000    -0.0637324  
C385     C      0.128870000000     0.832850000000     0.026100000000    -0.0626445  
C386     C      0.133310000000     0.847690000000     0.002180000000     0.0231155  
C387     C      0.116350000000     0.842700000000     0.479840000000    -0.0633524  
C388     C      0.094240000000     0.825170000000     0.482040000000     0.0219533  
C389     C      0.089000000000     0.811570000000     0.006370000000    -0.0967113  
C390     C      0.107050000000     0.814770000000     0.028080000000     0.0221619  
C391     C      0.153580000000     0.870150000000     0.001300000000     0.0221702  
C392     C      0.147430000000     0.894100000000     0.987180000000    -0.0627457  
C393     C      0.164930000000     0.916240000000     0.987880000000     0.0193656  
C394     C      0.189020000000     0.915360000000     0.003070000000    -0.0948788  
C395     C      0.195700000000     0.891230000000     0.016650000000     0.0192953  
C396     C      0.178190000000     0.868820000000     0.015720000000    -0.0621265  
C397     C      0.109150000000     0.652490000000     0.480110000000    -0.0640691  
C398     C      0.129360000000     0.651420000000     0.999940000000     0.0205421  
C399     C      0.129920000000     0.671320000000     0.020250000000    -0.0620789  
C400     C      0.109330000000     0.690960000000     0.021670000000     0.0192942  
C401     C      0.088120000000     0.690980000000     0.002640000000    -0.0954791  
C402     C      0.088920000000     0.672110000000     0.481310000000     0.0208465  
C403     C      0.148250000000     0.628160000000     0.500170000000     0.0228683  
C404     C      0.137720000000     0.601740000000     0.501150000000    -0.0648152  
C405     C      0.154900000000     0.579360000000     0.499270000000     0.0226017  
C406     C      0.182970000000     0.582900000000     0.495920000000    -0.0994381  
C407     C      0.193580000000     0.609410000000     0.995410000000     0.0220716  
C408     C      0.176340000000     0.631880000000     0.997770000000    -0.065137   
C409     C      0.369330000000     0.516520000000     0.326070000000    -0.0628599  
C410     C      0.371880000000     0.504370000000     0.351660000000     0.0221146  
C411     C      0.397280000000     0.993940000000     0.359370000000    -0.0634191  
C412     C      0.419600000000     0.995900000000     0.342200000000     0.0196419  
C413     C      0.417260000000     0.508500000000     0.316840000000    -0.0960319  
C414     C      0.391780000000     0.518540000000     0.308820000000     0.0193848  
C415     C      0.348790000000     0.503620000000     0.371060000000     0.0225162  
C416     C      0.331560000000     0.526160000000     0.374240000000    -0.062543   
C417     C      0.312560000000     0.526930000000     0.395270000000     0.0212687  
C418     C      0.310630000000     0.505300000000     0.413640000000    -0.0961486  
C419     C      0.326630000000     0.982120000000     0.409400000000     0.0210893  
C420     C      0.345320000000     0.981220000000     0.388270000000    -0.0638845  
C421     C      0.128060000000     0.981720000000     0.332690000000    -0.0649158  
C422     C      0.130820000000     0.003670000000     0.350580000000     0.0234959  
C423     C      0.110840000000     0.523960000000     0.350740000000    -0.0636118  
C424     C      0.088060000000     0.521850000000     0.334090000000     0.0218262  
C425     C      0.084950000000     0.999590000000     0.316610000000    -0.099075   
C426     C      0.105470000000     0.979830000000     0.315660000000     0.0224541  
C427     C      0.153050000000     0.504320000000     0.370750000000     0.0224717  
C428     C      0.157820000000     0.981600000000     0.387140000000    -0.0640513  
C429     C      0.176010000000     0.983120000000     0.408690000000     0.0212595  
C430     C      0.190180000000     0.507270000000     0.414050000000    -0.0972895  
C431     C      0.186600000000     0.529540000000     0.396730000000     0.0216788  
C432     C      0.167960000000     0.528170000000     0.375420000000    -0.0636884  
C433     C      0.120500000000     0.972200000000     0.164180000000    -0.06363    
C434     C      0.120040000000     0.991030000000     0.142830000000     0.0224605  
C435     C      0.099320000000     0.510590000000     0.142160000000    -0.0637387  
C436     C      0.078800000000     0.510500000000     0.161490000000     0.0234337  
C437     C      0.078690000000     0.991110000000     0.182240000000    -0.100458   
C438     C      0.100050000000     0.972330000000     0.183810000000     0.022988   
C439     C      0.140180000000     0.989690000000     0.120550000000     0.0231476  
C440     C      0.167610000000     0.983670000000     0.125590000000    -0.0637502  
C441     C      0.186310000000     0.982730000000     0.104340000000     0.0222225  
C442     C      0.177950000000     0.987940000000     0.077680000000    -0.0991184  
C443     C      0.150510000000     0.993700000000     0.072680000000     0.0233292  
C444     C      0.131870000000     0.994410000000     0.093800000000    -0.0638973  
C445     C      0.325610000000     0.495820000000     0.129610000000    -0.0642989  
C446     C      0.353710000000     0.998380000000     0.125930000000     0.0233507  
C447     C      0.364160000000     0.999960000000     0.099590000000    -0.0657147  
C448     C      0.346940000000     0.998540000000     0.077270000000     0.0225971  
C449     C      0.318880000000     0.995070000000     0.080770000000    -0.0991098  
C450     C      0.308330000000     0.493910000000     0.107200000000     0.0215438  
C451     C      0.372610000000     0.498060000000     0.149150000000     0.021604   
C452     C      0.370960000000     0.517430000000     0.169920000000    -0.0629724  
C453     C      0.391380000000     0.518960000000     0.189670000000     0.019216   
C454     C      0.413520000000     0.500960000000     0.188960000000    -0.0958008  
C455     C      0.413880000000     0.980460000000     0.169170000000     0.0193105  
C456     C      0.393800000000     0.979160000000     0.149450000000    -0.0631958  
C457     C      0.018880000000     0.620850000000     0.339890000000    -0.0645114  
C458     C      0.495820000000     0.636320000000     0.346460000000     0.0231979  
C459     C      0.471130000000     0.630300000000     0.333410000000    -0.0631756  
C460     C      0.469270000000     0.608300000000     0.315560000000     0.0231819  
C461     C      0.491930000000     0.591720000000     0.310860000000    -0.0991323  
C462     C      0.016860000000     0.598610000000     0.322640000000     0.0235621  
C463     C      0.497120000000     0.656600000000     0.368780000000     0.0219182  
C464     C      0.013110000000     0.651150000000     0.391660000000    -0.0632833  
C465     C      0.013220000000     0.668730000000     0.413650000000     0.0201248  
C466     C      0.497070000000     0.692210000000     0.413710000000    -0.0959462  
C467     C      0.481540000000     0.698200000000     0.390620000000     0.0194183  
C468     C      0.481570000000     0.680560000000     0.368360000000    -0.0626483  
C469     C      0.509830000000     0.876800000000     0.331050000000    -0.0635922  
C470     C      0.000000000000     0.881160000000     0.357310000000     0.0218295  
C471     C      0.990580000000     0.906980000000     0.364520000000    -0.0640141  
C472     C      0.991850000000     0.928380000000     0.346220000000     0.0213078  
C473     C      0.002870000000     0.924550000000     0.320290000000    -0.0976966  
C474     C      0.511420000000     0.898400000000     0.312700000000     0.0196519  
C475     C      0.501100000000     0.859640000000     0.378060000000     0.0219528  
C476     C      0.488490000000     0.834410000000     0.374130000000    -0.0636465  
C477     C      0.487490000000     0.815460000000     0.395240000000     0.0196626  
C478     C      0.499390000000     0.821400000000     0.420410000000    -0.0969574  
C479     C      0.013130000000     0.846190000000     0.423620000000     0.019674   
C480     C      0.013830000000     0.865090000000     0.402780000000    -0.063759   
C481     C      0.483030000000     0.888390000000     0.158390000000    -0.0637504  
C482     C      0.006320000000     0.872390000000     0.154650000000     0.0220996  
C483     C      0.028610000000     0.876250000000     0.172010000000    -0.0630409  
C484     C      0.028280000000     0.897020000000     0.191330000000     0.021214   
C485     C      0.005760000000     0.914350000000     0.193430000000    -0.0973768  
C486     C      0.482820000000     0.909230000000     0.177400000000     0.0222257  
C487     C      0.008070000000     0.853690000000     0.131120000000     0.022062   
C488     C      0.520570000000     0.828140000000     0.133150000000    -0.0633568  
C489     C      0.522530000000     0.811200000000     0.110480000000     0.0204576  
C490     C      0.012140000000     0.819560000000     0.085330000000    -0.0983834  
C491     C      0.999710000000     0.845130000000     0.083430000000     0.0217453  
C492     C      0.997760000000     0.861940000000     0.105960000000    -0.0631631  
C493     C      0.485510000000     0.593160000000     0.131000000000    -0.064442   
C494     C      0.494930000000     0.618980000000     0.138680000000     0.0231786  
C495     C      0.999230000000     0.624250000000     0.166330000000    -0.0634697  
C496     C      0.994960000000     0.603960000000     0.185620000000     0.0238351  
C497     C      0.486940000000     0.577920000000     0.177540000000    -0.101137   
C498     C      0.481970000000     0.572780000000     0.150150000000     0.025411   
C499     C      0.000790000000     0.639880000000     0.117740000000     0.0217288  
C500     C      0.010450000000     0.632030000000     0.092140000000    -0.0639314  
C501     C      0.014630000000     0.651190000000     0.071890000000     0.0245233  
C502     C      0.010050000000     0.678760000000     0.076940000000    -0.100653   
C503     C      0.501530000000     0.686950000000     0.102720000000     0.0237761  
C504     C      0.496650000000     0.667660000000     0.122870000000    -0.0641289  
C505     C      0.485360000000     0.555580000000     0.697120000000     0.352351   
C506     C      0.059940000000     0.996640000000     0.800310000000     0.34842    
C507     C      0.489450000000     0.565990000000     0.795870000000     0.349332   
C508     C      0.055470000000     0.989800000000     0.701010000000     0.351461   
C509     C      0.007250000000     0.939710000000     0.709250000000     0.343249   
C510     C      0.441630000000     0.511910000000     0.799580000000     0.343056   
C511     C      0.437870000000     0.504980000000     0.706130000000     0.343094   
C512     C      0.006500000000     0.948160000000     0.802140000000     0.343612   
C513     C      0.012940000000     0.698480000000     0.554830000000     0.352499   
C514     C      0.444810000000     0.802990000000     0.993260000000     0.348837   
C515     C      0.014090000000     0.802080000000     0.561010000000     0.349109   
C516     C      0.446410000000     0.702950000000     0.988030000000     0.351902   
C517     C      0.495240000000     0.708770000000     0.938670000000     0.344057   
C518     C      0.063450000000     0.796310000000     0.509710000000     0.343132   
C519     C      0.063540000000     0.707950000000     0.506150000000     0.343858   
C520     C      0.496410000000     0.803050000000     0.943940000000     0.34432    
C521     C      0.296200000000     0.940210000000     0.507730000000     0.344497   
C522     C      0.206170000000     0.509800000000     0.939190000000     0.3443     
C523     C      0.205610000000     0.940300000000     0.505940000000     0.342919   
C524     C      0.294640000000     0.507940000000     0.938780000000     0.342908   
C525     C      0.304310000000     0.556640000000     0.987010000000     0.351444   
C526     C      0.197480000000     0.987510000000     0.555010000000     0.351586   
C527     C      0.300970000000     0.992120000000     0.556900000000     0.34995    
C528     C      0.200800000000     0.559000000000     0.992380000000     0.350514   
C529     C      0.395210000000     0.855040000000     0.520430000000    -0.0635389  
C530     C      0.374160000000     0.853650000000     0.001360000000     0.0229853  
C531     C      0.376010000000     0.834790000000     0.980190000000    -0.0645001  
C532     C      0.398660000000     0.817870000000     0.977920000000     0.022215   
C533     C      0.420160000000     0.819850000000     0.996500000000    -0.0986505  
C534     C      0.418080000000     0.838470000000     0.517910000000     0.0216401  
C535     C      0.351480000000     0.873350000000     0.502380000000     0.022615   
C536     C      0.337400000000     0.878340000000     0.526590000000    -0.0638803  
C537     C      0.317970000000     0.899020000000     0.527990000000     0.0217032  
C538     C      0.312800000000     0.915400000000     0.505350000000    -0.0976342  
C539     C      0.326200000000     0.909740000000     0.980940000000     0.022298   
C540     C      0.345150000000     0.888780000000     0.979400000000    -0.0642056  
C541     C      0.334260000000     0.627360000000     0.482610000000    -0.0638702  
C542     C      0.361580000000     0.622440000000     0.989080000000     0.0230956  
C543     C      0.369830000000     0.595720000000     0.994550000000    -0.0638943  
C544     C      0.351200000000     0.574490000000     0.993970000000     0.023025   
C545     C      0.323870000000     0.579370000000     0.987640000000    -0.0992682  
C546     C      0.315590000000     0.606020000000     0.481850000000     0.0221466  
C547     C      0.381670000000     0.644850000000     0.990080000000     0.0227859  
C548     C      0.381540000000     0.665670000000     0.470640000000    -0.0635746  
C549     C      0.401990000000     0.685360000000     0.470490000000     0.0230922  
C550     C      0.423010000000     0.684370000000     0.989620000000    -0.100135   
C551     C      0.422490000000     0.664210000000     0.009640000000     0.0239834  
C552     C      0.401990000000     0.644820000000     0.009980000000    -0.0634372  
C553     C      0.128880000000     0.832850000000     0.526100000000    -0.0626317  
C554     C      0.133320000000     0.847680000000     0.502180000000     0.0228182  
C555     C      0.116350000000     0.842690000000     0.979840000000    -0.0636677  
C556     C      0.094240000000     0.825170000000     0.982040000000     0.0216949  
C557     C      0.089000000000     0.811570000000     0.506370000000    -0.0969562  
C558     C      0.107050000000     0.814770000000     0.528080000000     0.0221473  
C559     C      0.153580000000     0.870150000000     0.501300000000     0.0218799  
C560     C      0.147430000000     0.894110000000     0.487180000000    -0.0625094  
C561     C      0.164930000000     0.916240000000     0.487890000000     0.0197419  
C562     C      0.189020000000     0.915360000000     0.503070000000    -0.0951956  
C563     C      0.195700000000     0.891230000000     0.516650000000     0.0192888  
C564     C      0.178190000000     0.868820000000     0.515720000000    -0.0621227  
C565     C      0.109140000000     0.652490000000     0.980110000000    -0.0634661  
C566     C      0.129370000000     0.651420000000     0.499940000000     0.0216988  
C567     C      0.129930000000     0.671320000000     0.520250000000    -0.0629623  
C568     C      0.109340000000     0.690960000000     0.521680000000     0.0196699  
C569     C      0.088130000000     0.690980000000     0.502640000000    -0.0960952  
C570     C      0.088910000000     0.672100000000     0.981310000000     0.0200851  
C571     C      0.148240000000     0.628160000000     0.000170000000     0.0237649  
C572     C      0.137720000000     0.601740000000     0.001150000000    -0.064619   
C573     C      0.154890000000     0.579350000000     0.999270000000     0.0221858  
C574     C      0.182970000000     0.582900000000     0.995920000000    -0.0994162  
C575     C      0.193580000000     0.609410000000     0.495410000000     0.0219383  
C576     C      0.176340000000     0.631890000000     0.497770000000    -0.0645476  
C577     C      0.369330000000     0.516520000000     0.826070000000    -0.0628718  
C578     C      0.371880000000     0.504370000000     0.851660000000     0.0221312  
C579     C      0.397280000000     0.993940000000     0.859370000000    -0.0634335  
C580     C      0.419600000000     0.995900000000     0.842200000000     0.0196123  
C581     C      0.417260000000     0.508500000000     0.816840000000    -0.0961794  
C582     C      0.391780000000     0.518550000000     0.808820000000     0.0194182  
C583     C      0.348790000000     0.503620000000     0.871060000000     0.0225081  
C584     C      0.331560000000     0.526160000000     0.874240000000    -0.0625419  
C585     C      0.312560000000     0.526930000000     0.895270000000     0.0212761  
C586     C      0.310630000000     0.505300000000     0.913640000000    -0.0962004  
C587     C      0.326630000000     0.982120000000     0.909400000000     0.0210868  
C588     C      0.345320000000     0.981220000000     0.888270000000    -0.0638848  
C589     C      0.128060000000     0.981720000000     0.832690000000    -0.0649156  
C590     C      0.130820000000     0.003670000000     0.850580000000     0.0234961  
C591     C      0.110840000000     0.523960000000     0.850740000000    -0.0636143  
C592     C      0.088060000000     0.521850000000     0.834090000000     0.0218286  
C593     C      0.084950000000     0.999590000000     0.816610000000    -0.0990725  
C594     C      0.105470000000     0.979830000000     0.815660000000     0.0224546  
C595     C      0.153050000000     0.504320000000     0.870750000000     0.0224816  
C596     C      0.157820000000     0.981600000000     0.887140000000    -0.0640407  
C597     C      0.176010000000     0.983120000000     0.908690000000     0.0212242  
C598     C      0.190180000000     0.507270000000     0.914050000000    -0.0973082  
C599     C      0.186600000000     0.529540000000     0.896730000000     0.0216838  
C600     C      0.167960000000     0.528170000000     0.875420000000    -0.0636976  
C601     C      0.120500000000     0.972200000000     0.664180000000    -0.0636397  
C602     C      0.120040000000     0.991030000000     0.642830000000     0.0224519  
C603     C      0.099320000000     0.510590000000     0.642160000000    -0.0637224  
C604     C      0.078800000000     0.510500000000     0.661490000000     0.0233874  
C605     C      0.078690000000     0.991110000000     0.682240000000    -0.100527   
C606     C      0.100050000000     0.972330000000     0.683810000000     0.0230155  
C607     C      0.140180000000     0.989690000000     0.620550000000     0.0231777  
C608     C      0.167610000000     0.983670000000     0.625590000000    -0.0637903  
C609     C      0.186310000000     0.982730000000     0.604340000000     0.0222682  
C610     C      0.177950000000     0.987940000000     0.577680000000    -0.0992405  
C611     C      0.150510000000     0.993700000000     0.572690000000     0.0234316  
C612     C      0.131870000000     0.994410000000     0.593800000000    -0.0639874  
C613     C      0.325610000000     0.495820000000     0.629610000000    -0.0643153  
C614     C      0.353710000000     0.998380000000     0.625930000000     0.0233812  
C615     C      0.364160000000     0.999960000000     0.599590000000    -0.0657734  
C616     C      0.346940000000     0.998540000000     0.577270000000     0.0226396  
C617     C      0.318880000000     0.995070000000     0.580770000000    -0.0992185  
C618     C      0.308330000000     0.493910000000     0.607200000000     0.0215528  
C619     C      0.372610000000     0.498060000000     0.649150000000     0.021569   
C620     C      0.370960000000     0.517430000000     0.669920000000    -0.0629265  
C621     C      0.391380000000     0.518970000000     0.689670000000     0.0191478  
C622     C      0.413510000000     0.500960000000     0.688960000000    -0.0957201  
C623     C      0.413880000000     0.980460000000     0.669170000000     0.019285   
C624     C      0.393800000000     0.979160000000     0.649450000000    -0.0631642  
C625     C      0.018880000000     0.620850000000     0.839890000000    -0.0645228  
C626     C      0.495820000000     0.636310000000     0.846460000000     0.0232283  
C627     C      0.471130000000     0.630300000000     0.833410000000    -0.0632004  
C628     C      0.469270000000     0.608300000000     0.815560000000     0.0231954  
C629     C      0.491930000000     0.591720000000     0.810860000000    -0.0991496  
C630     C      0.016860000000     0.598610000000     0.822640000000     0.0235451  
C631     C      0.497110000000     0.656600000000     0.868780000000     0.0219183  
C632     C      0.013100000000     0.651150000000     0.891670000000    -0.0632051  
C633     C      0.013220000000     0.668720000000     0.913660000000     0.020006   
C634     C      0.497070000000     0.692200000000     0.913710000000    -0.0960205  
C635     C      0.481540000000     0.698190000000     0.890620000000     0.019482   
C636     C      0.481570000000     0.680560000000     0.868360000000    -0.0626938  
C637     C      0.509840000000     0.876800000000     0.831050000000    -0.0636452  
C638     C      0.000000000000     0.881160000000     0.857310000000     0.0218173  
C639     C      0.990580000000     0.906980000000     0.864520000000    -0.0639946  
C640     C      0.991850000000     0.928380000000     0.846220000000     0.0212628  
C641     C      0.002870000000     0.924550000000     0.820290000000    -0.0976415  
C642     C      0.511420000000     0.898400000000     0.812700000000     0.0197138  
C643     C      0.501100000000     0.859640000000     0.878060000000     0.0219009  
C644     C      0.488490000000     0.834410000000     0.874130000000    -0.0635697  
C645     C      0.487490000000     0.815450000000     0.895240000000     0.0195379  
C646     C      0.499390000000     0.821400000000     0.920410000000    -0.0968407  
C647     C      0.013130000000     0.846190000000     0.923620000000     0.0196755  
C648     C      0.013830000000     0.865090000000     0.902780000000    -0.0637748  
C649     C      0.483030000000     0.888390000000     0.658390000000    -0.0637872  
C650     C      0.006320000000     0.872390000000     0.654650000000     0.022114   
C651     C      0.028610000000     0.876250000000     0.672010000000    -0.0630331  
C652     C      0.028280000000     0.897020000000     0.691330000000     0.0211765  
C653     C      0.005750000000     0.914350000000     0.693430000000    -0.0973748  
C654     C      0.482820000000     0.909230000000     0.677400000000     0.0222964  
C655     C      0.008070000000     0.853690000000     0.631120000000     0.0220235  
C656     C      0.520570000000     0.828140000000     0.633150000000    -0.0633639  
C657     C      0.522530000000     0.811200000000     0.610480000000     0.0204311  
C658     C      0.012140000000     0.819560000000     0.585330000000    -0.0982378  
C659     C      0.999710000000     0.845130000000     0.583430000000     0.0216344  
C660     C      0.997760000000     0.861940000000     0.605960000000    -0.0630883  
C661     C      0.485510000000     0.593160000000     0.631000000000    -0.0644452  
C662     C      0.494930000000     0.618980000000     0.638680000000     0.023199   
C663     C      0.999230000000     0.624250000000     0.666320000000    -0.0634995  
C664     C      0.994960000000     0.603960000000     0.685620000000     0.0238265  
C665     C      0.486930000000     0.577920000000     0.677540000000    -0.101125   
C666     C      0.481970000000     0.572780000000     0.650150000000     0.0254087  
C667     C      0.000790000000     0.639880000000     0.617740000000     0.0216442  
C668     C      0.010440000000     0.632030000000     0.592130000000    -0.0638786  
C669     C      0.014630000000     0.651190000000     0.571890000000     0.0245436  
C670     C      0.010040000000     0.678760000000     0.576930000000    -0.100729   
C671     C      0.501530000000     0.686950000000     0.602720000000     0.0237385  
C672     C      0.496650000000     0.667660000000     0.622860000000    -0.0640391  
C673     C      0.985350000000     0.055590000000     0.197120000000     0.352392   
C674     C      0.559940000000     0.496640000000     0.300310000000     0.348696   
C675     C      0.989450000000     0.065990000000     0.295870000000     0.349837   
C676     C      0.555470000000     0.489790000000     0.201000000000     0.351358   
C677     C      0.507240000000     0.439700000000     0.209250000000     0.343752   
C678     C      0.941640000000     0.011920000000     0.299580000000     0.343214   
C679     C      0.937870000000     0.004980000000     0.206130000000     0.343454   
C680     C      0.506510000000     0.448160000000     0.302150000000     0.343768   
C681     C      0.512940000000     0.198480000000     0.054840000000     0.352793   
C682     C      0.944810000000     0.302990000000     0.493260000000     0.348859   
C683     C      0.514090000000     0.302080000000     0.061020000000     0.349034   
C684     C      0.946420000000     0.202950000000     0.488030000000     0.351615   
C685     C      0.995250000000     0.208770000000     0.438670000000     0.344249   
C686     C      0.563450000000     0.296310000000     0.009710000000     0.343631   
C687     C      0.563530000000     0.207950000000     0.006150000000     0.343961   
C688     C      0.996420000000     0.303050000000     0.443940000000     0.344835   
C689     C      0.796200000000     0.440210000000     0.007730000000     0.344703   
C690     C      0.706170000000     0.009800000000     0.439190000000     0.344784   
C691     C      0.705610000000     0.440290000000     0.005940000000     0.343131   
C692     C      0.794650000000     0.007930000000     0.438780000000     0.343243   
C693     C      0.804320000000     0.056640000000     0.487010000000     0.351489   
C694     C      0.697480000000     0.487510000000     0.055010000000     0.35148    
C695     C      0.800970000000     0.492120000000     0.056900000000     0.349746   
C696     C      0.700800000000     0.059000000000     0.492380000000     0.350533   
C697     C      0.895210000000     0.355050000000     0.020430000000    -0.0638667  
C698     C      0.874160000000     0.353660000000     0.501360000000     0.0224579  
C699     C      0.876010000000     0.334790000000     0.480190000000    -0.0638989  
C700     C      0.898670000000     0.317870000000     0.477920000000     0.0219487  
C701     C      0.920160000000     0.319850000000     0.496490000000    -0.0980765  
C702     C      0.918080000000     0.338470000000     0.017910000000     0.0222965  
C703     C      0.851480000000     0.373360000000     0.002380000000     0.0228333  
C704     C      0.837400000000     0.378340000000     0.026590000000    -0.0638438  
C705     C      0.817970000000     0.399020000000     0.027990000000     0.0216646  
C706     C      0.812800000000     0.415400000000     0.005350000000    -0.0972937  
C707     C      0.826200000000     0.409730000000     0.480940000000     0.0226881  
C708     C      0.845150000000     0.388770000000     0.479400000000    -0.0639767  
C709     C      0.834250000000     0.127370000000     0.982610000000    -0.0639597  
C710     C      0.861580000000     0.122440000000     0.489070000000     0.0229975  
C711     C      0.869830000000     0.095710000000     0.494540000000    -0.0636846  
C712     C      0.851210000000     0.074480000000     0.493960000000     0.0230377  
C713     C      0.823870000000     0.079360000000     0.487640000000    -0.0993357  
C714     C      0.815580000000     0.106020000000     0.981850000000     0.0220913  
C715     C      0.881680000000     0.144840000000     0.490070000000     0.0231922  
C716     C      0.881540000000     0.165670000000     0.970640000000    -0.063446   
C717     C      0.901990000000     0.185370000000     0.970490000000     0.0229886  
C718     C      0.923020000000     0.184370000000     0.489610000000    -0.0996143  
C719     C      0.922500000000     0.164200000000     0.509630000000     0.0235702  
C720     C      0.902000000000     0.144810000000     0.509960000000    -0.0637468  
C721     C      0.628870000000     0.332850000000     0.026090000000    -0.0627254  
C722     C      0.633310000000     0.347680000000     0.002180000000     0.0232137  
C723     C      0.616350000000     0.342690000000     0.479840000000    -0.0633135  
C724     C      0.594240000000     0.325170000000     0.482040000000     0.0219681  
C725     C      0.588990000000     0.311570000000     0.006370000000    -0.0968423  
C726     C      0.607050000000     0.314780000000     0.028080000000     0.0222523  
C727     C      0.653580000000     0.370150000000     0.001300000000     0.0221274  
C728     C      0.647430000000     0.394100000000     0.987180000000    -0.0626907  
C729     C      0.664930000000     0.416240000000     0.987880000000     0.01932    
C730     C      0.689020000000     0.415350000000     0.003060000000    -0.0948315  
C731     C      0.695700000000     0.391230000000     0.016650000000     0.0192525  
C732     C      0.678190000000     0.368820000000     0.015720000000    -0.0620885  
C733     C      0.609150000000     0.152490000000     0.480110000000    -0.0639999  
C734     C      0.629360000000     0.151420000000     0.999930000000     0.020558   
C735     C      0.629920000000     0.171320000000     0.020240000000    -0.0620292  
C736     C      0.609330000000     0.190960000000     0.021670000000     0.0191969  
C737     C      0.588120000000     0.190980000000     0.002630000000    -0.0953815  
C738     C      0.588910000000     0.172110000000     0.481310000000     0.0207926  
C739     C      0.648250000000     0.128160000000     0.500170000000     0.0228777  
C740     C      0.637720000000     0.101740000000     0.501150000000    -0.0647806  
C741     C      0.654900000000     0.079360000000     0.499270000000     0.0226162  
C742     C      0.682970000000     0.082900000000     0.495910000000    -0.0993884  
C743     C      0.693580000000     0.109410000000     0.995410000000     0.022077   
C744     C      0.676340000000     0.131890000000     0.997770000000    -0.0651841  
C745     C      0.869330000000     0.016530000000     0.326080000000    -0.0628188  
C746     C      0.871880000000     0.004370000000     0.351670000000     0.022614   
C747     C      0.897270000000     0.493940000000     0.359370000000    -0.0629265  
C748     C      0.919600000000     0.495900000000     0.342200000000     0.0203301  
C749     C      0.917270000000     0.008510000000     0.316840000000    -0.0955103  
C750     C      0.891790000000     0.018550000000     0.308820000000     0.0193408  
C751     C      0.848790000000     0.003630000000     0.371060000000     0.0230401  
C752     C      0.831560000000     0.026160000000     0.374250000000    -0.0625049  
C753     C      0.812560000000     0.026930000000     0.395270000000     0.0212447  
C754     C      0.810640000000     0.005300000000     0.413640000000    -0.0956312  
C755     C      0.826630000000     0.482120000000     0.409400000000     0.0215984  
C756     C      0.845320000000     0.481210000000     0.388270000000    -0.0633636  
C757     C      0.628060000000     0.481720000000     0.332680000000    -0.0638979  
C758     C      0.630810000000     0.503670000000     0.350580000000     0.0225597  
C759     C      0.610850000000     0.023960000000     0.350740000000    -0.0641874  
C760     C      0.588060000000     0.021850000000     0.334090000000     0.0229684  
C761     C      0.584950000000     0.499590000000     0.316610000000    -0.0981051  
C762     C      0.605470000000     0.479830000000     0.315660000000     0.0219297  
C763     C      0.653050000000     0.004320000000     0.370750000000     0.022821   
C764     C      0.657830000000     0.481600000000     0.387130000000    -0.0635093  
C765     C      0.676020000000     0.483130000000     0.408690000000     0.0217849  
C766     C      0.690170000000     0.007270000000     0.414060000000    -0.0967276  
C767     C      0.686600000000     0.029540000000     0.396740000000     0.0215941  
C768     C      0.667960000000     0.028170000000     0.375420000000    -0.0635908  
C769     C      0.620490000000     0.472190000000     0.164180000000    -0.0636971  
C770     C      0.620030000000     0.491020000000     0.142820000000     0.0231306  
C771     C      0.599330000000     0.010600000000     0.142170000000    -0.0631041  
C772     C      0.578810000000     0.010500000000     0.161490000000     0.0240355  
C773     C      0.578680000000     0.491100000000     0.182230000000    -0.0999248  
C774     C      0.600040000000     0.472320000000     0.183810000000     0.0229656  
C775     C      0.640170000000     0.489680000000     0.120540000000     0.0230768  
C776     C      0.667600000000     0.483670000000     0.125590000000    -0.0636997  
C777     C      0.686310000000     0.482730000000     0.104330000000     0.0222223  
C778     C      0.677950000000     0.487940000000     0.077670000000    -0.0991061  
C779     C      0.650500000000     0.493690000000     0.072680000000     0.0233973  
C780     C      0.631860000000     0.494390000000     0.093790000000    -0.0637834  
C781     C      0.825610000000     0.995810000000     0.129610000000    -0.0647876  
C782     C      0.853700000000     0.498390000000     0.125930000000     0.0227162  
C783     C      0.864160000000     0.499960000000     0.099590000000    -0.0645492  
C784     C      0.846940000000     0.498550000000     0.077270000000     0.0221648  
C785     C      0.818880000000     0.495070000000     0.080770000000    -0.098803   
C786     C      0.808340000000     0.993910000000     0.107200000000     0.0218491  
C787     C      0.872610000000     0.998050000000     0.149150000000     0.0202513  
C788     C      0.870970000000     0.017420000000     0.169920000000    -0.0616187  
C789     C      0.891380000000     0.018960000000     0.189670000000     0.0185701  
C790     C      0.913530000000     0.000960000000     0.188960000000    -0.0948466  
C791     C      0.913880000000     0.480460000000     0.169180000000     0.0204545  
C792     C      0.893800000000     0.479160000000     0.149450000000    -0.0638581  
C793     C      0.518880000000     0.120850000000     0.339890000000    -0.0641554  
C794     C      0.995820000000     0.136320000000     0.346450000000     0.0236339  
C795     C      0.971140000000     0.130310000000     0.333400000000    -0.0631722  
C796     C      0.969270000000     0.108310000000     0.315550000000     0.023177   
C797     C      0.991930000000     0.091720000000     0.310850000000    -0.0988031  
C798     C      0.516860000000     0.098610000000     0.322640000000     0.024007   
C799     C      0.997120000000     0.156600000000     0.368770000000     0.0223065  
C800     C      0.513100000000     0.151150000000     0.391660000000    -0.0627534  
C801     C      0.513220000000     0.168720000000     0.413660000000     0.0203708  
C802     C      0.997080000000     0.192210000000     0.413700000000    -0.0955158  
C803     C      0.981550000000     0.198200000000     0.390610000000     0.0193915  
C804     C      0.981580000000     0.180560000000     0.368350000000    -0.0626509  
C805     C      0.009840000000     0.376800000000     0.331050000000    -0.0636654  
C806     C      0.500010000000     0.381160000000     0.357310000000     0.0220862  
C807     C      0.490580000000     0.406980000000     0.364520000000    -0.0643308  
C808     C      0.491850000000     0.428380000000     0.346220000000     0.0208237  
C809     C      0.502870000000     0.424550000000     0.320300000000    -0.0970923  
C810     C      0.011420000000     0.398390000000     0.312700000000     0.0196992  
C811     C      0.001100000000     0.359640000000     0.378050000000     0.0212338  
C812     C      0.988490000000     0.334410000000     0.374130000000    -0.0627826  
C813     C      0.987490000000     0.315450000000     0.395240000000     0.0192018  
C814     C      0.999400000000     0.321400000000     0.420410000000    -0.0962612  
C815     C      0.513130000000     0.346200000000     0.423630000000     0.0203755  
C816     C      0.513830000000     0.365090000000     0.402780000000    -0.0640634  
C817     C      0.983030000000     0.388390000000     0.158390000000    -0.0633425  
C818     C      0.506320000000     0.372380000000     0.154650000000     0.0225498  
C819     C      0.528600000000     0.376240000000     0.172010000000    -0.0630065  
C820     C      0.528280000000     0.397010000000     0.191340000000     0.0211692  
C821     C      0.505750000000     0.414340000000     0.193440000000    -0.0970876  
C822     C      0.982820000000     0.409220000000     0.177400000000     0.0226856  
C823     C      0.508070000000     0.353690000000     0.131130000000     0.0223447  
C824     C      0.020580000000     0.328140000000     0.133140000000    -0.0634216  
C825     C      0.022540000000     0.311200000000     0.110470000000     0.0205551  
C826     C      0.512140000000     0.319560000000     0.085330000000    -0.0978268  
C827     C      0.499710000000     0.345120000000     0.083440000000     0.0212673  
C828     C      0.497760000000     0.361930000000     0.105960000000    -0.0634699  
C829     C      0.985500000000     0.093170000000     0.131000000000    -0.0646049  
C830     C      0.994920000000     0.118990000000     0.138680000000     0.0239104  
C831     C      0.499240000000     0.124250000000     0.166330000000    -0.0637792  
C832     C      0.494970000000     0.103960000000     0.185620000000     0.0238248  
C833     C      0.986930000000     0.077930000000     0.177540000000    -0.101072   
C834     C      0.981960000000     0.072790000000     0.150150000000     0.0255463  
C835     C      0.500800000000     0.139880000000     0.117740000000     0.0232978  
C836     C      0.510450000000     0.132030000000     0.092140000000    -0.0645992  
C837     C      0.514640000000     0.151190000000     0.071900000000     0.0252591  
C838     C      0.510050000000     0.178760000000     0.076940000000    -0.101483   
C839     C      0.001530000000     0.186960000000     0.102720000000     0.0219715  
C840     C      0.996650000000     0.167670000000     0.122870000000    -0.0622191  
C841     C      0.985350000000     0.055590000000     0.697120000000     0.352397   
C842     C      0.559940000000     0.496640000000     0.800310000000     0.34872    
C843     C      0.989450000000     0.065990000000     0.795870000000     0.349636   
C844     C      0.555460000000     0.489790000000     0.701000000000     0.35147    
C845     C      0.507240000000     0.439700000000     0.709250000000     0.343753   
C846     C      0.941640000000     0.011920000000     0.799580000000     0.34313    
C847     C      0.937870000000     0.004980000000     0.706130000000     0.343286   
C848     C      0.506510000000     0.448160000000     0.802140000000     0.344079   
C849     C      0.512940000000     0.198480000000     0.554830000000     0.353025   
C850     C      0.944810000000     0.302990000000     0.993260000000     0.348824   
C851     C      0.514090000000     0.302080000000     0.561020000000     0.349041   
C852     C      0.946420000000     0.202950000000     0.988030000000     0.351587   
C853     C      0.995250000000     0.208770000000     0.938670000000     0.344208   
C854     C      0.563450000000     0.296310000000     0.509710000000     0.343169   
C855     C      0.563540000000     0.207950000000     0.506150000000     0.343749   
C856     C      0.996410000000     0.303050000000     0.943940000000     0.344915   
C857     C      0.796200000000     0.440200000000     0.507730000000     0.344455   
C858     C      0.706170000000     0.009800000000     0.939190000000     0.344826   
C859     C      0.705600000000     0.440290000000     0.505940000000     0.342857   
C860     C      0.794650000000     0.007940000000     0.938780000000     0.343248   
C861     C      0.804320000000     0.056640000000     0.987010000000     0.35136    
C862     C      0.697480000000     0.487510000000     0.555010000000     0.351558   
C863     C      0.800970000000     0.492120000000     0.556900000000     0.349916   
C864     C      0.700800000000     0.059000000000     0.992380000000     0.350469   
C865     C      0.895210000000     0.355050000000     0.520430000000    -0.0635599  
C866     C      0.874160000000     0.353660000000     0.001360000000     0.0229779  
C867     C      0.876010000000     0.334790000000     0.980190000000    -0.0644771  
C868     C      0.898660000000     0.317870000000     0.977920000000     0.0222116  
C869     C      0.920160000000     0.319850000000     0.996500000000    -0.0986212  
C870     C      0.918080000000     0.338470000000     0.517910000000     0.0216531  
C871     C      0.851480000000     0.373350000000     0.502380000000     0.0226017  
C872     C      0.837400000000     0.378340000000     0.526590000000    -0.0638233  
C873     C      0.817970000000     0.399020000000     0.527990000000     0.0217145  
C874     C      0.812800000000     0.415400000000     0.505350000000    -0.0977085  
C875     C      0.826200000000     0.409730000000     0.980940000000     0.0223462  
C876     C      0.845150000000     0.388780000000     0.979400000000    -0.0642383  
C877     C      0.834260000000     0.127360000000     0.482610000000    -0.063825   
C878     C      0.861580000000     0.122440000000     0.989080000000     0.0231346  
C879     C      0.869830000000     0.095720000000     0.994540000000    -0.0638615  
C880     C      0.851210000000     0.074490000000     0.993970000000     0.023061   
C881     C      0.823870000000     0.079360000000     0.987640000000    -0.0993352  
C882     C      0.815590000000     0.106020000000     0.481850000000     0.0221141  
C883     C      0.881670000000     0.144840000000     0.990080000000     0.0227597  
C884     C      0.881540000000     0.165670000000     0.470640000000    -0.0635911  
C885     C      0.901990000000     0.185360000000     0.470490000000     0.0230927  
C886     C      0.923010000000     0.184370000000     0.989620000000    -0.0998225  
C887     C      0.922490000000     0.164210000000     0.009640000000     0.0238411  
C888     C      0.901990000000     0.144810000000     0.009970000000    -0.0633674  
C889     C      0.628880000000     0.332850000000     0.526090000000    -0.0626206  
C890     C      0.633320000000     0.347680000000     0.502180000000     0.0228111  
C891     C      0.616350000000     0.342690000000     0.979840000000    -0.0637321  
C892     C      0.594240000000     0.325170000000     0.982040000000     0.0217877  
C893     C      0.589000000000     0.311570000000     0.506370000000    -0.0969539  
C894     C      0.607050000000     0.314770000000     0.528080000000     0.0221457  
C895     C      0.653580000000     0.370150000000     0.501300000000     0.0219042  
C896     C      0.647430000000     0.394110000000     0.487180000000    -0.062542   
C897     C      0.664930000000     0.416240000000     0.487890000000     0.0198553  
C898     C      0.689020000000     0.415360000000     0.503060000000    -0.0953169  
C899     C      0.695710000000     0.391230000000     0.516650000000     0.0192657  
C900     C      0.678190000000     0.368820000000     0.515710000000    -0.0621075  
C901     C      0.609140000000     0.152480000000     0.980110000000    -0.0634857  
C902     C      0.629360000000     0.151420000000     0.499940000000     0.0217162  
C903     C      0.629930000000     0.171320000000     0.520250000000    -0.0629899  
C904     C      0.609340000000     0.190960000000     0.521670000000     0.0197261  
C905     C      0.588130000000     0.190980000000     0.502640000000    -0.0960654  
C906     C      0.588900000000     0.172100000000     0.981310000000     0.0200775  
C907     C      0.648240000000     0.128160000000     0.000170000000     0.0237941  
C908     C      0.637720000000     0.101740000000     0.001150000000    -0.0645896  
C909     C      0.654890000000     0.079350000000     0.999270000000     0.0221977  
C910     C      0.682970000000     0.082900000000     0.995910000000    -0.0993541  
C911     C      0.693580000000     0.109410000000     0.495410000000     0.0219716  
C912     C      0.676340000000     0.131890000000     0.497770000000    -0.0645458  
C913     C      0.869330000000     0.016530000000     0.826080000000    -0.0628029  
C914     C      0.871880000000     0.004370000000     0.851670000000     0.0225995  
C915     C      0.897270000000     0.493940000000     0.859370000000    -0.0628993  
C916     C      0.919600000000     0.495900000000     0.842200000000     0.0202931  
C917     C      0.917260000000     0.008510000000     0.816840000000    -0.0954026  
C918     C      0.891790000000     0.018550000000     0.808820000000     0.0193219  
C919     C      0.848790000000     0.003630000000     0.871060000000     0.0230466  
C920     C      0.831560000000     0.026160000000     0.874250000000    -0.0625023  
C921     C      0.812560000000     0.026930000000     0.895280000000     0.0212421  
C922     C      0.810640000000     0.005300000000     0.913640000000    -0.0956397  
C923     C      0.826630000000     0.482120000000     0.909400000000     0.0215631  
C924     C      0.845320000000     0.481220000000     0.888270000000    -0.0633048  
C925     C      0.628060000000     0.481720000000     0.832690000000    -0.063882   
C926     C      0.630810000000     0.503670000000     0.850580000000     0.0225472  
C927     C      0.610850000000     0.023960000000     0.850740000000    -0.0642009  
C928     C      0.588060000000     0.021850000000     0.834090000000     0.0229685  
C929     C      0.584950000000     0.499590000000     0.816610000000    -0.0980929  
C930     C      0.605470000000     0.479830000000     0.815660000000     0.0219027  
C931     C      0.653050000000     0.004320000000     0.870750000000     0.022781   
C932     C      0.657830000000     0.481600000000     0.887130000000    -0.0635688  
C933     C      0.676020000000     0.483130000000     0.908680000000     0.0218444  
C934     C      0.690170000000     0.007270000000     0.914050000000    -0.0966678  
C935     C      0.686600000000     0.029540000000     0.896740000000     0.0215817  
C936     C      0.667960000000     0.028170000000     0.875420000000    -0.063573   
C937     C      0.620490000000     0.472200000000     0.664180000000    -0.0636279  
C938     C      0.620030000000     0.491020000000     0.642820000000     0.0230991  
C939     C      0.599330000000     0.010600000000     0.642170000000    -0.0630431  
C940     C      0.578810000000     0.010500000000     0.661490000000     0.0240006  
C941     C      0.578680000000     0.491100000000     0.682230000000    -0.0998428  
C942     C      0.600040000000     0.472320000000     0.683810000000     0.022907   
C943     C      0.640170000000     0.489680000000     0.620540000000     0.0230943  
C944     C      0.667600000000     0.483670000000     0.625590000000    -0.0637247  
C945     C      0.686310000000     0.482730000000     0.604330000000     0.0222456  
C946     C      0.677950000000     0.487940000000     0.577670000000    -0.0991772  
C947     C      0.650500000000     0.493690000000     0.572680000000     0.0234174  
C948     C      0.631860000000     0.494400000000     0.593790000000    -0.0638333  
C949     C      0.825610000000     0.995810000000     0.629610000000    -0.064807   
C950     C      0.853700000000     0.498390000000     0.625930000000     0.0227013  
C951     C      0.864160000000     0.499960000000     0.599590000000    -0.0645713  
C952     C      0.846940000000     0.498550000000     0.577270000000     0.0221859  
C953     C      0.818880000000     0.495070000000     0.580770000000    -0.0988975  
C954     C      0.808340000000     0.993910000000     0.607200000000     0.021861   
C955     C      0.872610000000     0.998050000000     0.649150000000     0.0202321  
C956     C      0.870970000000     0.017420000000     0.669920000000    -0.0616127  
C957     C      0.891380000000     0.018960000000     0.689670000000     0.0185613  
C958     C      0.913530000000     0.000960000000     0.688960000000    -0.0947747  
C959     C      0.913870000000     0.480460000000     0.669180000000     0.0206108  
C960     C      0.893800000000     0.479160000000     0.649450000000    -0.0639964  
C961     C      0.518880000000     0.120850000000     0.839890000000    -0.0641294  
C962     C      0.995820000000     0.136320000000     0.846460000000     0.0235289  
C963     C      0.971140000000     0.130310000000     0.833400000000    -0.0630761  
C964     C      0.969270000000     0.108310000000     0.815560000000     0.0230995  
C965     C      0.991930000000     0.091720000000     0.810860000000    -0.0986483  
C966     C      0.516860000000     0.098610000000     0.822640000000     0.0240049  
C967     C      0.997120000000     0.156600000000     0.868780000000     0.0223951  
C968     C      0.513100000000     0.151150000000     0.891670000000    -0.0627634  
C969     C      0.513210000000     0.168720000000     0.913660000000     0.0205025  
C970     C      0.997070000000     0.192210000000     0.913700000000    -0.0955308  
C971     C      0.981550000000     0.198200000000     0.890610000000     0.0194348  
C972     C      0.981580000000     0.180560000000     0.868350000000    -0.062708   
C973     C      0.009840000000     0.376800000000     0.831050000000    -0.0636205  
C974     C      0.500010000000     0.381160000000     0.857310000000     0.0220924  
C975     C      0.490580000000     0.406980000000     0.864520000000    -0.0643309  
C976     C      0.491840000000     0.428380000000     0.846220000000     0.0208122  
C977     C      0.502870000000     0.424550000000     0.820290000000    -0.0971607  
C978     C      0.011420000000     0.398390000000     0.812700000000     0.0196532  
C979     C      0.001100000000     0.359640000000     0.878050000000     0.0212764  
C980     C      0.988490000000     0.334410000000     0.874130000000    -0.0628085  
C981     C      0.987490000000     0.315450000000     0.895240000000     0.0192111  
C982     C      0.999400000000     0.321400000000     0.920410000000    -0.0962937  
C983     C      0.513130000000     0.346200000000     0.923630000000     0.0202806  
C984     C      0.513830000000     0.365090000000     0.902780000000    -0.0640326  
C985     C      0.983030000000     0.388390000000     0.658390000000    -0.0633177  
C986     C      0.506320000000     0.372380000000     0.654650000000     0.0225593  
C987     C      0.528600000000     0.376240000000     0.672010000000    -0.0630111  
C988     C      0.528280000000     0.397010000000     0.691340000000     0.0211706  
C989     C      0.505750000000     0.414340000000     0.693440000000    -0.0970885  
C990     C      0.982820000000     0.409220000000     0.677400000000     0.0226521  
C991     C      0.508060000000     0.353690000000     0.631130000000     0.0223137  
C992     C      0.020580000000     0.328140000000     0.633150000000    -0.063471   
C993     C      0.022540000000     0.311200000000     0.610470000000     0.0205417  
C994     C      0.512140000000     0.319560000000     0.585340000000    -0.0977715  
C995     C      0.499710000000     0.345120000000     0.583440000000     0.0211989  
C996     C      0.497760000000     0.361930000000     0.605960000000    -0.0634209  
C997     C      0.985490000000     0.093170000000     0.631000000000    -0.0646236  
C998     C      0.994920000000     0.118990000000     0.638680000000     0.0238911  
C999     C      0.499230000000     0.124250000000     0.666330000000    -0.0637923  
C1000    C      0.494970000000     0.103960000000     0.685620000000     0.0238448  
C1001    C      0.986930000000     0.077930000000     0.677540000000    -0.101086   
C1002    C      0.981960000000     0.072790000000     0.650150000000     0.0255655  
C1003    C      0.500790000000     0.139880000000     0.617740000000     0.0232113  
C1004    C      0.510450000000     0.132030000000     0.592130000000    -0.0645662  
C1005    C      0.514630000000     0.151190000000     0.571890000000     0.0252127  
C1006    C      0.510050000000     0.178760000000     0.576940000000    -0.101452   
C1007    C      0.001530000000     0.186950000000     0.602710000000     0.0220328  
C1008    C      0.996640000000     0.167660000000     0.622860000000    -0.0622134  
C1009    C      0.985350000000     0.555580000000     0.197120000000     0.352447   
C1010    C      0.559940000000     0.996640000000     0.300310000000     0.348469   
C1011    C      0.989450000000     0.565990000000     0.295870000000     0.34972    
C1012    C      0.555470000000     0.989800000000     0.201010000000     0.351354   
C1013    C      0.507250000000     0.939710000000     0.209250000000     0.343922   
C1014    C      0.941630000000     0.511910000000     0.299580000000     0.34301    
C1015    C      0.937870000000     0.504980000000     0.206130000000     0.342806   
C1016    C      0.506510000000     0.948160000000     0.302150000000     0.344042   
C1017    C      0.512950000000     0.698480000000     0.054840000000     0.352789   
C1018    C      0.944810000000     0.802990000000     0.493260000000     0.348855   
C1019    C      0.514090000000     0.802080000000     0.061020000000     0.349148   
C1020    C      0.946420000000     0.702950000000     0.488030000000     0.351615   
C1021    C      0.995250000000     0.708770000000     0.438670000000     0.344256   
C1022    C      0.563450000000     0.796310000000     0.009710000000     0.343624   
C1023    C      0.563530000000     0.707950000000     0.006150000000     0.343991   
C1024    C      0.996410000000     0.803050000000     0.443940000000     0.344886   
C1025    C      0.796200000000     0.940210000000     0.007730000000     0.344806   
C1026    C      0.706170000000     0.509800000000     0.439190000000     0.344302   
C1027    C      0.705600000000     0.940290000000     0.005940000000     0.34307    
C1028    C      0.794640000000     0.507930000000     0.438780000000     0.342684   
C1029    C      0.804320000000     0.556630000000     0.487010000000     0.351661   
C1030    C      0.697480000000     0.987510000000     0.055010000000     0.351395   
C1031    C      0.800970000000     0.992120000000     0.056900000000     0.349899   
C1032    C      0.700800000000     0.559000000000     0.492380000000     0.350572   
C1033    C      0.895210000000     0.855040000000     0.020430000000    -0.0638256  
C1034    C      0.874160000000     0.853660000000     0.501360000000     0.02244    
C1035    C      0.876010000000     0.834790000000     0.480190000000    -0.0638904  
C1036    C      0.898670000000     0.817870000000     0.477920000000     0.0219412  
C1037    C      0.920160000000     0.819850000000     0.496490000000    -0.098072   
C1038    C      0.918080000000     0.838470000000     0.017910000000     0.0222807  
C1039    C      0.851480000000     0.873350000000     0.002380000000     0.0227892  
C1040    C      0.837400000000     0.878340000000     0.026590000000    -0.0637683  
C1041    C      0.817970000000     0.899020000000     0.027990000000     0.0216379  
C1042    C      0.812800000000     0.915400000000     0.005350000000    -0.0973091  
C1043    C      0.826200000000     0.909730000000     0.480940000000     0.0226337  
C1044    C      0.845150000000     0.888770000000     0.479400000000    -0.0639675  
C1045    C      0.834250000000     0.627370000000     0.982610000000    -0.06394    
C1046    C      0.861580000000     0.622440000000     0.489070000000     0.0229915  
C1047    C      0.869830000000     0.595710000000     0.494540000000    -0.0637109  
C1048    C      0.851210000000     0.574480000000     0.493960000000     0.0230032  
C1049    C      0.823870000000     0.579360000000     0.487640000000    -0.0993497  
C1050    C      0.815580000000     0.606020000000     0.981850000000     0.02206    
C1051    C      0.881680000000     0.644840000000     0.490070000000     0.0231828  
C1052    C      0.881540000000     0.665670000000     0.970640000000    -0.0634769  
C1053    C      0.901990000000     0.685370000000     0.970490000000     0.023035   
C1054    C      0.923020000000     0.684370000000     0.489610000000    -0.0996128  
C1055    C      0.922500000000     0.664200000000     0.509630000000     0.0235572  
C1056    C      0.902000000000     0.644810000000     0.509960000000    -0.0637474  
C1057    C      0.628870000000     0.832850000000     0.026100000000    -0.0626614  
C1058    C      0.633310000000     0.847690000000     0.002180000000     0.0231427  
C1059    C      0.616350000000     0.842700000000     0.479850000000    -0.0633672  
C1060    C      0.594240000000     0.825170000000     0.482050000000     0.0220411  
C1061    C      0.588990000000     0.811570000000     0.006370000000    -0.0968067  
C1062    C      0.607050000000     0.814770000000     0.028080000000     0.0222015  
C1063    C      0.653580000000     0.870150000000     0.001300000000     0.022165   
C1064    C      0.647430000000     0.894110000000     0.987180000000    -0.0627639  
C1065    C      0.664930000000     0.916240000000     0.987880000000     0.0194289  
C1066    C      0.689020000000     0.915360000000     0.003070000000    -0.0950106  
C1067    C      0.695700000000     0.891230000000     0.016650000000     0.0193514  
C1068    C      0.678190000000     0.868820000000     0.015720000000    -0.0621426  
C1069    C      0.609150000000     0.652490000000     0.480110000000    -0.0640038  
C1070    C      0.629360000000     0.651420000000     0.999940000000     0.0205977  
C1071    C      0.629920000000     0.671320000000     0.020250000000    -0.0621469  
C1072    C      0.609330000000     0.690960000000     0.021670000000     0.0193205  
C1073    C      0.588120000000     0.690980000000     0.002640000000    -0.095458   
C1074    C      0.588910000000     0.672110000000     0.481310000000     0.0208059  
C1075    C      0.648240000000     0.628160000000     0.500170000000     0.0228515  
C1076    C      0.637720000000     0.601740000000     0.501150000000    -0.0648086  
C1077    C      0.654900000000     0.579360000000     0.499270000000     0.0226088  
C1078    C      0.682970000000     0.582900000000     0.495920000000    -0.0994493  
C1079    C      0.693580000000     0.609410000000     0.995410000000     0.0220293  
C1080    C      0.676340000000     0.631880000000     0.997770000000    -0.0651117  
C1081    C      0.869330000000     0.516520000000     0.326070000000    -0.0628907  
C1082    C      0.871880000000     0.504370000000     0.351660000000     0.0221477  
C1083    C      0.897280000000     0.993940000000     0.359370000000    -0.0634332  
C1084    C      0.919600000000     0.995900000000     0.342200000000     0.0197047  
C1085    C      0.917260000000     0.508500000000     0.316840000000    -0.0961605  
C1086    C      0.891780000000     0.518540000000     0.308820000000     0.019454   
C1087    C      0.848790000000     0.503620000000     0.371060000000     0.0224998  
C1088    C      0.831560000000     0.526160000000     0.374240000000    -0.0625188  
C1089    C      0.812560000000     0.526930000000     0.395270000000     0.0212289  
C1090    C      0.810640000000     0.505300000000     0.413640000000    -0.0960809  
C1091    C      0.826630000000     0.982120000000     0.409400000000     0.0210847  
C1092    C      0.845320000000     0.981220000000     0.388270000000    -0.0638678  
C1093    C      0.628060000000     0.981720000000     0.332680000000    -0.0649042  
C1094    C      0.630820000000     0.003670000000     0.350580000000     0.0234936  
C1095    C      0.610840000000     0.523960000000     0.350740000000    -0.0636294  
C1096    C      0.588060000000     0.521850000000     0.334090000000     0.0218851  
C1097    C      0.584950000000     0.999590000000     0.316610000000    -0.0990672  
C1098    C      0.605470000000     0.979830000000     0.315660000000     0.0224516  
C1099    C      0.653050000000     0.504320000000     0.370750000000     0.0224139  
C1100    C      0.657830000000     0.981600000000     0.387130000000    -0.0639928  
C1101    C      0.676020000000     0.983120000000     0.408690000000     0.0212015  
C1102    C      0.690180000000     0.507270000000     0.414050000000    -0.0972388  
C1103    C      0.686600000000     0.529550000000     0.396740000000     0.0215768  
C1104    C      0.667960000000     0.528170000000     0.375420000000    -0.0636072  
C1105    C      0.620490000000     0.972200000000     0.164180000000    -0.0635611  
C1106    C      0.620040000000     0.991020000000     0.142830000000     0.0224426  
C1107    C      0.599320000000     0.510590000000     0.142150000000    -0.063803   
C1108    C      0.578800000000     0.510490000000     0.161480000000     0.0234938  
C1109    C      0.578690000000     0.991100000000     0.182240000000    -0.100428   
C1110    C      0.600050000000     0.972320000000     0.183810000000     0.0229644  
C1111    C      0.640180000000     0.989690000000     0.120550000000     0.0231943  
C1112    C      0.667610000000     0.983670000000     0.125590000000    -0.0637718  
C1113    C      0.686310000000     0.982730000000     0.104340000000     0.0222308  
C1114    C      0.677950000000     0.987940000000     0.077680000000    -0.099119   
C1115    C      0.650510000000     0.993700000000     0.072680000000     0.0233858  
C1116    C      0.631860000000     0.994410000000     0.093800000000    -0.0639944  
C1117    C      0.825610000000     0.495810000000     0.129610000000    -0.0643732  
C1118    C      0.853710000000     0.998380000000     0.125930000000     0.0233591  
C1119    C      0.864160000000     0.999960000000     0.099590000000    -0.0657006  
C1120    C      0.846950000000     0.998540000000     0.077270000000     0.0225679  
C1121    C      0.818880000000     0.995070000000     0.080770000000    -0.0991269  
C1122    C      0.808340000000     0.493910000000     0.107200000000     0.021648   
C1123    C      0.872610000000     0.498060000000     0.149150000000     0.0215658  
C1124    C      0.870960000000     0.517430000000     0.169920000000    -0.0629424  
C1125    C      0.891380000000     0.518960000000     0.189670000000     0.0191755  
C1126    C      0.913520000000     0.500960000000     0.188960000000    -0.0956932  
C1127    C      0.913880000000     0.980460000000     0.169170000000     0.0194202  
C1128    C      0.893810000000     0.979160000000     0.149450000000    -0.0632196  
C1129    C      0.518880000000     0.620850000000     0.339890000000    -0.0641677  
C1130    C      0.995820000000     0.636320000000     0.346460000000     0.0235381  
C1131    C      0.971140000000     0.630310000000     0.333400000000    -0.0630785  
C1132    C      0.969270000000     0.608310000000     0.315550000000     0.0230938  
C1133    C      0.991930000000     0.591720000000     0.310860000000    -0.098711   
C1134    C      0.516860000000     0.598610000000     0.322640000000     0.0239993  
C1135    C      0.997120000000     0.656600000000     0.368770000000     0.0223553  
C1136    C      0.513100000000     0.651150000000     0.391670000000    -0.0628067  
C1137    C      0.513220000000     0.668720000000     0.413660000000     0.0204755  
C1138    C      0.997080000000     0.692210000000     0.413700000000    -0.0955284  
C1139    C      0.981550000000     0.698200000000     0.390610000000     0.0194069  
C1140    C      0.981580000000     0.680560000000     0.368350000000    -0.0626761  
C1141    C      0.009830000000     0.876800000000     0.331050000000    -0.0636839  
C1142    C      0.500000000000     0.881160000000     0.357310000000     0.0220827  
C1143    C      0.490580000000     0.906990000000     0.364520000000    -0.0644167  
C1144    C      0.491840000000     0.928380000000     0.346220000000     0.0209388  
C1145    C      0.502870000000     0.924550000000     0.320300000000    -0.0972794  
C1146    C      0.011420000000     0.898400000000     0.312700000000     0.0197132  
C1147    C      0.001100000000     0.859640000000     0.378060000000     0.0212499  
C1148    C      0.988480000000     0.834410000000     0.374130000000    -0.0628136  
C1149    C      0.987490000000     0.815450000000     0.395240000000     0.0192523  
C1150    C      0.999390000000     0.821400000000     0.420410000000    -0.0962883  
C1151    C      0.513120000000     0.846200000000     0.423630000000     0.0204104  
C1152    C      0.513820000000     0.865090000000     0.402780000000    -0.0640733  
C1153    C      0.983030000000     0.888390000000     0.158390000000    -0.0632785  
C1154    C      0.506320000000     0.872380000000     0.154650000000     0.0225163  
C1155    C      0.528600000000     0.876240000000     0.172010000000    -0.063004   
C1156    C      0.528280000000     0.897010000000     0.191340000000     0.0211801  
C1157    C      0.505760000000     0.914350000000     0.193440000000    -0.0970954  
C1158    C      0.982820000000     0.909230000000     0.177400000000     0.0225695  
C1159    C      0.508070000000     0.853690000000     0.131130000000     0.0223757  
C1160    C      0.020580000000     0.828150000000     0.133140000000    -0.0634272  
C1161    C      0.022540000000     0.811200000000     0.110470000000     0.0205486  
C1162    C      0.512140000000     0.819560000000     0.085330000000    -0.0978586  
C1163    C      0.499710000000     0.845130000000     0.083440000000     0.0212792  
C1164    C      0.497760000000     0.861940000000     0.105960000000    -0.0635439  
C1165    C      0.985500000000     0.593170000000     0.131000000000    -0.0646464  
C1166    C      0.994920000000     0.618990000000     0.138680000000     0.0238765  
C1167    C      0.499240000000     0.624250000000     0.166330000000    -0.06383    
C1168    C      0.494970000000     0.603960000000     0.185620000000     0.0238775  
C1169    C      0.986930000000     0.577920000000     0.177540000000    -0.10113    
C1170    C      0.981960000000     0.572790000000     0.150150000000     0.0255548  
C1171    C      0.500800000000     0.639880000000     0.117740000000     0.0232356  
C1172    C      0.510460000000     0.632030000000     0.092140000000    -0.0645313  
C1173    C      0.514640000000     0.651190000000     0.071890000000     0.0251494  
C1174    C      0.510050000000     0.678760000000     0.076940000000    -0.101412   
C1175    C      0.001530000000     0.686950000000     0.102720000000     0.0220062  
C1176    C      0.996650000000     0.667660000000     0.122870000000    -0.062263   
C1177    C      0.985350000000     0.555580000000     0.697120000000     0.352447   
C1178    C      0.559940000000     0.996640000000     0.800310000000     0.348469   
C1179    C      0.989450000000     0.565990000000     0.795870000000     0.349611   
C1180    C      0.555470000000     0.989800000000     0.701010000000     0.351355   
C1181    C      0.507250000000     0.939710000000     0.709250000000     0.344071   
C1182    C      0.941630000000     0.511910000000     0.799580000000     0.343036   
C1183    C      0.937870000000     0.504980000000     0.706130000000     0.343214   
C1184    C      0.506510000000     0.948160000000     0.802150000000     0.344093   
C1185    C      0.512940000000     0.698470000000     0.554830000000     0.352938   
C1186    C      0.944810000000     0.802990000000     0.993260000000     0.348791   
C1187    C      0.514090000000     0.802080000000     0.561020000000     0.34904    
C1188    C      0.946420000000     0.702950000000     0.988030000000     0.351816   
C1189    C      0.995250000000     0.708770000000     0.938670000000     0.344191   
C1190    C      0.563450000000     0.796310000000     0.509710000000     0.343188   
C1191    C      0.563540000000     0.707950000000     0.506150000000     0.343954   
C1192    C      0.996410000000     0.803050000000     0.943940000000     0.344898   
C1193    C      0.796200000000     0.940210000000     0.507730000000     0.344493   
C1194    C      0.706170000000     0.509800000000     0.939190000000     0.344301   
C1195    C      0.705600000000     0.940300000000     0.505940000000     0.342866   
C1196    C      0.794640000000     0.507940000000     0.938780000000     0.342677   
C1197    C      0.804320000000     0.556640000000     0.987010000000     0.35133    
C1198    C      0.697480000000     0.987510000000     0.555010000000     0.351549   
C1199    C      0.800970000000     0.992120000000     0.556900000000     0.349935   
C1200    C      0.700800000000     0.559000000000     0.992380000000     0.350286   
C1201    C      0.895210000000     0.855040000000     0.520430000000    -0.0635209  
C1202    C      0.874160000000     0.853660000000     0.001360000000     0.0229678  
C1203    C      0.876010000000     0.834790000000     0.980190000000    -0.0644686  
C1204    C      0.898660000000     0.817870000000     0.977920000000     0.0222013  
C1205    C      0.920160000000     0.819850000000     0.996500000000    -0.0986041  
C1206    C      0.918080000000     0.838470000000     0.517910000000     0.0216395  
C1207    C      0.851480000000     0.873350000000     0.502380000000     0.0225887  
C1208    C      0.837400000000     0.878340000000     0.526590000000    -0.0638075  
C1209    C      0.817970000000     0.899020000000     0.527990000000     0.0216697  
C1210    C      0.812800000000     0.915400000000     0.505350000000    -0.097618   
C1211    C      0.826200000000     0.909740000000     0.980940000000     0.0222853  
C1212    C      0.845150000000     0.888770000000     0.979400000000    -0.0642019  
C1213    C      0.834260000000     0.627360000000     0.482610000000    -0.0638364  
C1214    C      0.861580000000     0.622440000000     0.989080000000     0.0230836  
C1215    C      0.869830000000     0.595720000000     0.994540000000    -0.0637888  
C1216    C      0.851210000000     0.574480000000     0.993970000000     0.0228941  
C1217    C      0.823870000000     0.579370000000     0.987640000000    -0.0992637  
C1218    C      0.815590000000     0.606020000000     0.481850000000     0.0221075  
C1219    C      0.881670000000     0.644840000000     0.990080000000     0.0227842  
C1220    C      0.881540000000     0.665670000000     0.470640000000    -0.0635913  
C1221    C      0.901990000000     0.685360000000     0.470490000000     0.0230895  
C1222    C      0.923010000000     0.684370000000     0.989620000000    -0.0999114  
C1223    C      0.922490000000     0.664210000000     0.009640000000     0.0238726  
C1224    C      0.901990000000     0.644810000000     0.009970000000    -0.063396   
C1225    C      0.628880000000     0.832850000000     0.526100000000    -0.0626697  
C1226    C      0.633310000000     0.847680000000     0.502180000000     0.0228798  
C1227    C      0.616350000000     0.842700000000     0.979840000000    -0.0636851  
C1228    C      0.594240000000     0.825170000000     0.982040000000     0.0217431  
C1229    C      0.589000000000     0.811570000000     0.506370000000    -0.0970123  
C1230    C      0.607050000000     0.814770000000     0.528080000000     0.0221878  
C1231    C      0.653580000000     0.870150000000     0.501300000000     0.0218515  
C1232    C      0.647430000000     0.894110000000     0.487180000000    -0.0624912  
C1233    C      0.664930000000     0.916240000000     0.487890000000     0.0197407  
C1234    C      0.689020000000     0.915360000000     0.503070000000    -0.0952121  
C1235    C      0.695710000000     0.891230000000     0.516650000000     0.0192362  
C1236    C      0.678190000000     0.868820000000     0.515720000000    -0.062078   
C1237    C      0.609140000000     0.652480000000     0.980110000000    -0.0635255  
C1238    C      0.629360000000     0.651420000000     0.499940000000     0.0217059  
C1239    C      0.629930000000     0.671320000000     0.520250000000    -0.0629631  
C1240    C      0.609340000000     0.690960000000     0.521680000000     0.0196737  
C1241    C      0.588130000000     0.690980000000     0.502640000000    -0.0960899  
C1242    C      0.588910000000     0.672100000000     0.981310000000     0.0201107  
C1243    C      0.648240000000     0.628160000000     0.000170000000     0.0237352  
C1244    C      0.637720000000     0.601740000000     0.001150000000    -0.0645847  
C1245    C      0.654890000000     0.579350000000     0.999270000000     0.0221398  
C1246    C      0.682970000000     0.582900000000     0.995920000000    -0.0993315  
C1247    C      0.693580000000     0.609410000000     0.495410000000     0.0219642  
C1248    C      0.676340000000     0.631890000000     0.497770000000    -0.0645389  
C1249    C      0.869330000000     0.516520000000     0.826070000000    -0.0628033  
C1250    C      0.871880000000     0.504370000000     0.851660000000     0.0221077  
C1251    C      0.897280000000     0.993940000000     0.859370000000    -0.0634124  
C1252    C      0.919600000000     0.995900000000     0.842200000000     0.0196097  
C1253    C      0.917260000000     0.508510000000     0.816840000000    -0.0961411  
C1254    C      0.891780000000     0.518550000000     0.808820000000     0.0194043  
C1255    C      0.848790000000     0.503630000000     0.871060000000     0.0225025  
C1256    C      0.831560000000     0.526160000000     0.874240000000    -0.0625199  
C1257    C      0.812560000000     0.526930000000     0.895270000000     0.0212093  
C1258    C      0.810640000000     0.505300000000     0.913640000000    -0.0960609  
C1259    C      0.826630000000     0.982120000000     0.909400000000     0.0210928  
C1260    C      0.845320000000     0.981220000000     0.888270000000    -0.0638857  
C1261    C      0.628060000000     0.981720000000     0.832690000000    -0.0649078  
C1262    C      0.630820000000     0.003670000000     0.850580000000     0.0235199  
C1263    C      0.610840000000     0.523960000000     0.850740000000    -0.0636021  
C1264    C      0.588050000000     0.521850000000     0.834090000000     0.021851   
C1265    C      0.584950000000     0.999590000000     0.816610000000    -0.0990626  
C1266    C      0.605470000000     0.979830000000     0.815660000000     0.022434   
C1267    C      0.653050000000     0.504320000000     0.870750000000     0.022453   
C1268    C      0.657830000000     0.981600000000     0.887140000000    -0.0639659  
C1269    C      0.676020000000     0.983120000000     0.908690000000     0.0211767  
C1270    C      0.690180000000     0.507270000000     0.914050000000    -0.0973084  
C1271    C      0.686600000000     0.529540000000     0.896730000000     0.0216796  
C1272    C      0.667960000000     0.528170000000     0.875420000000    -0.0636835  
C1273    C      0.620490000000     0.972200000000     0.664180000000    -0.063544   
C1274    C      0.620040000000     0.991020000000     0.642830000000     0.0224016  
C1275    C      0.599320000000     0.510590000000     0.642150000000    -0.0637785  
C1276    C      0.578800000000     0.510490000000     0.661480000000     0.0234462  
C1277    C      0.578690000000     0.991100000000     0.682240000000    -0.100419   
C1278    C      0.600050000000     0.972320000000     0.683810000000     0.0229511  
C1279    C      0.640180000000     0.989690000000     0.620550000000     0.0232312  
C1280    C      0.667600000000     0.983670000000     0.625590000000    -0.0637767  
C1281    C      0.686310000000     0.982730000000     0.604340000000     0.0222332  
C1282    C      0.677950000000     0.987940000000     0.577680000000    -0.0992059  
C1283    C      0.650510000000     0.993700000000     0.572680000000     0.0234085  
C1284    C      0.631860000000     0.994410000000     0.593800000000    -0.0640391  
C1285    C      0.825610000000     0.495820000000     0.629610000000    -0.0643828  
C1286    C      0.853710000000     0.998380000000     0.625930000000     0.0233683  
C1287    C      0.864160000000     0.999960000000     0.599590000000    -0.0657277  
C1288    C      0.846950000000     0.998540000000     0.577270000000     0.0225725  
C1289    C      0.818880000000     0.995070000000     0.580770000000    -0.0991733  
C1290    C      0.808340000000     0.493910000000     0.607200000000     0.0216704  
C1291    C      0.872610000000     0.498060000000     0.649150000000     0.021627   
C1292    C      0.870960000000     0.517430000000     0.669920000000    -0.0629983  
C1293    C      0.891380000000     0.518960000000     0.689670000000     0.0192586  
C1294    C      0.913520000000     0.500960000000     0.688960000000    -0.0958785  
C1295    C      0.913880000000     0.980460000000     0.669170000000     0.0193632  
C1296    C      0.893810000000     0.979160000000     0.649450000000    -0.0631943  
C1297    C      0.518880000000     0.620850000000     0.839890000000    -0.0641791  
C1298    C      0.995820000000     0.636320000000     0.846460000000     0.0235524  
C1299    C      0.971140000000     0.630310000000     0.833400000000    -0.0630967  
C1300    C      0.969270000000     0.608310000000     0.815560000000     0.0230993  
C1301    C      0.991930000000     0.591720000000     0.810860000000    -0.0986652  
C1302    C      0.516860000000     0.598610000000     0.822640000000     0.0240063  
C1303    C      0.997120000000     0.656600000000     0.868780000000     0.0223373  
C1304    C      0.513100000000     0.651150000000     0.891670000000    -0.0627984  
C1305    C      0.513210000000     0.668720000000     0.913660000000     0.0205531  
C1306    C      0.997070000000     0.692210000000     0.913700000000    -0.0954729  
C1307    C      0.981550000000     0.698200000000     0.890610000000     0.0194033  
C1308    C      0.981580000000     0.680560000000     0.868350000000    -0.0626718  
C1309    C      0.009830000000     0.876800000000     0.831050000000    -0.0636801  
C1310    C      0.500000000000     0.881160000000     0.857310000000     0.0221161  
C1311    C      0.490580000000     0.906980000000     0.864520000000    -0.0643862  
C1312    C      0.491840000000     0.928380000000     0.846220000000     0.0208524  
C1313    C      0.502870000000     0.924550000000     0.820290000000    -0.0973251  
C1314    C      0.011420000000     0.898400000000     0.812700000000     0.0197151  
C1315    C      0.001100000000     0.859640000000     0.878060000000     0.0212565  
C1316    C      0.988480000000     0.834410000000     0.874130000000    -0.0628241  
C1317    C      0.987490000000     0.815450000000     0.895240000000     0.0192581  
C1318    C      0.999390000000     0.821400000000     0.920410000000    -0.0963143  
C1319    C      0.513120000000     0.846200000000     0.923630000000     0.0203086  
C1320    C      0.513820000000     0.865090000000     0.902780000000    -0.0640244  
C1321    C      0.983030000000     0.888390000000     0.658390000000    -0.0632989  
C1322    C      0.506320000000     0.872380000000     0.654650000000     0.0225315  
C1323    C      0.528600000000     0.876240000000     0.672010000000    -0.0630157  
C1324    C      0.528280000000     0.897010000000     0.691340000000     0.02119    
C1325    C      0.505750000000     0.914350000000     0.693440000000    -0.0971726  
C1326    C      0.982820000000     0.909230000000     0.677400000000     0.0226062  
C1327    C      0.508070000000     0.853690000000     0.631130000000     0.0223589  
C1328    C      0.020580000000     0.828150000000     0.633140000000    -0.0634071  
C1329    C      0.022530000000     0.811200000000     0.610470000000     0.0205073  
C1330    C      0.512140000000     0.819560000000     0.585340000000    -0.0977609  
C1331    C      0.499710000000     0.845130000000     0.583440000000     0.0212053  
C1332    C      0.497760000000     0.861940000000     0.605960000000    -0.06352    
C1333    C      0.985500000000     0.593170000000     0.631000000000    -0.064684   
C1334    C      0.994920000000     0.618980000000     0.638680000000     0.0239487  
C1335    C      0.499240000000     0.624250000000     0.666320000000    -0.0638216  
C1336    C      0.494970000000     0.603960000000     0.685620000000     0.0238305  
C1337    C      0.986930000000     0.577920000000     0.677540000000    -0.101132   
C1338    C      0.981960000000     0.572790000000     0.650150000000     0.0255613  
C1339    C      0.500800000000     0.639870000000     0.617740000000     0.0231746  
C1340    C      0.510450000000     0.632030000000     0.592130000000    -0.0645817  
C1341    C      0.514640000000     0.651190000000     0.571890000000     0.0252581  
C1342    C      0.510050000000     0.678750000000     0.576930000000    -0.101504   
C1343    C      0.001530000000     0.686950000000     0.602710000000     0.0219888  
C1344    C      0.996640000000     0.667660000000     0.622860000000    -0.0621856  
Co1      Co     0.497050000000     0.998810000000     0.212850000000     0.850239   
Co2      Co     0.001290000000     0.507130000000     0.290950000000     0.849996   
Co3      Co     0.470140000000     0.031750000000     0.250190000000     0.812149   
Co4      Co     0.029040000000     0.475150000000     0.252970000000     0.813685   
Co5      Co     0.004700000000     0.214400000000     0.997660000000     0.850106   
Co6      Co     0.503690000000     0.292300000000     0.502470000000     0.848659   
Co7      Co     0.029960000000     0.251480000000     0.032080000000     0.814544   
Co8      Co     0.473780000000     0.254360000000     0.472200000000     0.814825   
Co9      Co     0.289710000000     0.498940000000     0.997850000000     0.841766   
Co10     Co     0.211870000000     0.999630000000     0.497830000000     0.842734   
Co11     Co     0.250520000000     0.473200000000     0.030060000000     0.822677   
Co12     Co     0.251070000000     0.032310000000     0.472920000000     0.824608   
Co13     Co     0.497050000000     0.998810000000     0.712850000000     0.850307   
Co14     Co     0.001290000000     0.507130000000     0.790960000000     0.850075   
Co15     Co     0.470140000000     0.031750000000     0.750190000000     0.812158   
Co16     Co     0.029040000000     0.475150000000     0.752970000000     0.813708   
Co17     Co     0.004710000000     0.214400000000     0.497660000000     0.850701   
Co18     Co     0.503690000000     0.292300000000     0.002470000000     0.849145   
Co19     Co     0.029960000000     0.251480000000     0.532080000000     0.814316   
Co20     Co     0.473780000000     0.254360000000     0.972200000000     0.814653   
Co21     Co     0.289710000000     0.498940000000     0.497850000000     0.842159   
Co22     Co     0.211870000000     0.999630000000     0.997820000000     0.84224    
Co23     Co     0.250520000000     0.473210000000     0.530060000000     0.822369   
Co24     Co     0.251070000000     0.032310000000     0.972920000000     0.824263   
Co25     Co     0.497040000000     0.498810000000     0.212850000000     0.851261   
Co26     Co     0.001290000000     0.007130000000     0.290960000000     0.850724   
Co27     Co     0.470140000000     0.531750000000     0.250190000000     0.81207    
Co28     Co     0.029040000000     0.975150000000     0.252970000000     0.813357   
Co29     Co     0.004700000000     0.714400000000     0.997660000000     0.850159   
Co30     Co     0.503690000000     0.792300000000     0.502470000000     0.848654   
Co31     Co     0.029960000000     0.751480000000     0.032080000000     0.81448    
Co32     Co     0.473780000000     0.754360000000     0.472200000000     0.81488    
Co33     Co     0.289710000000     0.998940000000     0.997850000000     0.840774   
Co34     Co     0.211870000000     0.499630000000     0.497820000000     0.843529   
Co35     Co     0.250520000000     0.973210000000     0.030060000000     0.822483   
Co36     Co     0.251070000000     0.532310000000     0.472920000000     0.824038   
Co37     Co     0.497040000000     0.498810000000     0.712850000000     0.851274   
Co38     Co     0.001290000000     0.007130000000     0.790960000000     0.850657   
Co39     Co     0.470140000000     0.531750000000     0.750190000000     0.812031   
Co40     Co     0.029040000000     0.975150000000     0.752970000000     0.813385   
Co41     Co     0.004710000000     0.714400000000     0.497660000000     0.850706   
Co42     Co     0.503690000000     0.792300000000     0.002470000000     0.849167   
Co43     Co     0.029960000000     0.751480000000     0.532080000000     0.814309   
Co44     Co     0.473780000000     0.754360000000     0.972200000000     0.81458    
Co45     Co     0.289710000000     0.998940000000     0.497850000000     0.841357   
Co46     Co     0.211870000000     0.499630000000     0.997820000000     0.843072   
Co47     Co     0.250520000000     0.973210000000     0.530070000000     0.822356   
Co48     Co     0.251070000000     0.532310000000     0.972920000000     0.823843   
Co49     Co     0.997050000000     0.998820000000     0.212850000000     0.850765   
Co50     Co     0.501290000000     0.507130000000     0.290950000000     0.850602   
Co51     Co     0.970150000000     0.031750000000     0.250190000000     0.81242    
Co52     Co     0.529040000000     0.475150000000     0.252970000000     0.81387    
Co53     Co     0.504700000000     0.214400000000     0.997660000000     0.85081    
Co54     Co     0.003690000000     0.292300000000     0.502470000000     0.848047   
Co55     Co     0.529960000000     0.251480000000     0.032080000000     0.814684   
Co56     Co     0.973780000000     0.254360000000     0.472200000000     0.815199   
Co57     Co     0.789710000000     0.498940000000     0.997850000000     0.841648   
Co58     Co     0.711870000000     0.999630000000     0.497820000000     0.842729   
Co59     Co     0.750520000000     0.473200000000     0.030060000000     0.822716   
Co60     Co     0.751070000000     0.032310000000     0.472920000000     0.824565   
Co61     Co     0.997050000000     0.998820000000     0.712850000000     0.850798   
Co62     Co     0.501290000000     0.507130000000     0.790960000000     0.850757   
Co63     Co     0.970150000000     0.031750000000     0.750190000000     0.812385   
Co64     Co     0.529040000000     0.475150000000     0.752970000000     0.81391    
Co65     Co     0.504700000000     0.214400000000     0.497660000000     0.851378   
Co66     Co     0.003690000000     0.292310000000     0.002470000000     0.848619   
Co67     Co     0.529960000000     0.251480000000     0.532080000000     0.814539   
Co68     Co     0.973780000000     0.254360000000     0.972200000000     0.815003   
Co69     Co     0.789710000000     0.498940000000     0.497850000000     0.84223    
Co70     Co     0.711870000000     0.999630000000     0.997820000000     0.842248   
Co71     Co     0.750520000000     0.473200000000     0.530070000000     0.82262    
Co72     Co     0.751070000000     0.032310000000     0.972920000000     0.82423    
Co73     Co     0.997040000000     0.498820000000     0.212850000000     0.851913   
Co74     Co     0.501290000000     0.007130000000     0.290960000000     0.851327   
Co75     Co     0.970140000000     0.531750000000     0.250190000000     0.812361   
Co76     Co     0.529040000000     0.975150000000     0.252980000000     0.813517   
Co77     Co     0.504700000000     0.714400000000     0.997660000000     0.850838   
Co78     Co     0.003690000000     0.792300000000     0.502470000000     0.848111   
Co79     Co     0.529960000000     0.751480000000     0.032080000000     0.8147     
Co80     Co     0.973780000000     0.754360000000     0.472200000000     0.815213   
Co81     Co     0.789710000000     0.998940000000     0.997850000000     0.840868   
Co82     Co     0.711870000000     0.499630000000     0.497820000000     0.843553   
Co83     Co     0.750520000000     0.973210000000     0.030070000000     0.82262    
Co84     Co     0.751070000000     0.532310000000     0.472920000000     0.824002   
Co85     Co     0.997040000000     0.498820000000     0.712850000000     0.851907   
Co86     Co     0.501290000000     0.007130000000     0.790960000000     0.851332   
Co87     Co     0.970140000000     0.531750000000     0.750190000000     0.812348   
Co88     Co     0.529040000000     0.975150000000     0.752980000000     0.813537   
Co89     Co     0.504710000000     0.714400000000     0.497660000000     0.851293   
Co90     Co     0.003690000000     0.792300000000     0.002470000000     0.848482   
Co91     Co     0.529960000000     0.751480000000     0.532080000000     0.8145     
Co92     Co     0.973780000000     0.754360000000     0.972200000000     0.814937   
Co93     Co     0.789710000000     0.998940000000     0.497850000000     0.841348   
Co94     Co     0.711870000000     0.499630000000     0.997820000000     0.843118   
Co95     Co     0.750520000000     0.973210000000     0.530070000000     0.822377   
Co96     Co     0.751070000000     0.532310000000     0.972920000000     0.823801   
H1       H      0.360030000000     0.333320000000     0.465240000000     0.0479206  
H2       H      0.399640000000     0.303750000000     0.461190000000     0.0410505  
H3       H      0.434210000000     0.340370000000     0.032650000000     0.0396806  
H4       H      0.394420000000     0.369630000000     0.036770000000     0.0481098  
H5       H      0.341870000000     0.366630000000     0.044550000000     0.0480689  
H6       H      0.308090000000     0.403110000000     0.047100000000     0.0392933  
H7       H      0.322600000000     0.422050000000     0.463170000000     0.03675    
H8       H      0.355820000000     0.385500000000     0.460550000000     0.0479043  
H9       H      0.390830000000     0.091070000000     0.498980000000     0.0487073  
H10      H      0.358360000000     0.054180000000     0.498270000000     0.0427114  
H11      H      0.294640000000     0.110470000000     0.976950000000     0.0405139  
H12      H      0.327200000000     0.147740000000     0.978510000000     0.0476135  
H13      H      0.366250000000     0.166190000000     0.954950000000     0.0479395  
H14      H      0.401940000000     0.200660000000     0.954790000000     0.0399127  
H15      H      0.438200000000     0.163170000000     0.524920000000     0.0419003  
H16      H      0.402300000000     0.129520000000     0.525670000000     0.0482173  
H17      H      0.119570000000     0.353020000000     0.460810000000     0.0465411  
H18      H      0.080850000000     0.322750000000     0.464850000000     0.0368228  
H19      H      0.103380000000     0.304580000000     0.047110000000     0.040031   
H20      H      0.141300000000     0.336230000000     0.043800000000     0.0480359  
H21      H      0.128490000000     0.396320000000     0.976330000000     0.0475234  
H22      H      0.158980000000     0.434430000000     0.977170000000     0.0438142  
H23      H      0.214150000000     0.389820000000     0.528450000000     0.0424176  
H24      H      0.183800000000     0.350610000000     0.526550000000     0.0471765  
H25      H      0.145450000000     0.170830000000     0.035720000000     0.0485285  
H26      H      0.109330000000     0.205200000000     0.038320000000     0.0417303  
H27      H      0.073180000000     0.171660000000     0.466040000000     0.0418831  
H28      H      0.108540000000     0.137550000000     0.464070000000     0.0481614  
H29      H      0.116080000000     0.098430000000     0.503080000000     0.0492969  
H30      H      0.146040000000     0.059270000000     0.499760000000     0.0413662  
H31      H      0.215150000000     0.112800000000     0.993020000000     0.0393124  
H32      H      0.184820000000     0.152120000000     0.996870000000     0.0486473  
H33      H      0.400210000000     0.484930000000     0.379100000000     0.0480434  
H34      H      0.438860000000     0.487940000000     0.349130000000     0.0428548  
H35      H      0.389240000000     0.028310000000     0.289390000000     0.0420524  
H36      H      0.350020000000     0.024560000000     0.319410000000     0.0472617  
H37      H      0.333750000000     0.043840000000     0.361470000000     0.0479957  
H38      H      0.300570000000     0.045110000000     0.398090000000     0.0417183  
H39      H      0.325350000000     0.464960000000     0.423000000000     0.0384731  
H40      H      0.357720000000     0.463240000000     0.385970000000     0.0468079  
H41      H      0.112310000000     0.040940000000     0.364530000000     0.0482084  
H42      H      0.072700000000     0.037520000000     0.335160000000     0.0397671  
H43      H      0.103650000000     0.462440000000     0.302420000000     0.0406207  
H44      H      0.143210000000     0.465820000000     0.332160000000     0.0478954  
H45      H      0.146470000000     0.463040000000     0.384140000000     0.0479263  
H46      H      0.178410000000     0.465600000000     0.421660000000     0.0382279  
H47      H      0.197140000000     0.048440000000     0.400490000000     0.040007   
H48      H      0.164700000000     0.045930000000     0.362980000000     0.0479265  
H49      H      0.098750000000     0.025870000000     0.126460000000     0.0482015  
H50      H      0.062840000000     0.025520000000     0.160000000000     0.0415434  
H51      H      0.100400000000     0.457090000000     0.199560000000     0.0397383  
H52      H      0.136060000000     0.456750000000     0.165200000000     0.0478241  
H53      H      0.174700000000     0.480110000000     0.145980000000     0.0476014  
H54      H      0.207340000000     0.478270000000     0.108840000000     0.0400413  
H55      H      0.143280000000     0.997490000000     0.052370000000     0.0424919  
H56      H      0.110800000000     0.998420000000     0.089050000000     0.048467   
H57      H      0.385780000000     0.502110000000     0.096280000000     0.0490629  
H58      H      0.355750000000     0.499530000000     0.057240000000     0.0413576  
H59      H      0.286770000000     0.991410000000     0.110560000000     0.0392653  
H60      H      0.317140000000     0.994480000000     0.149760000000     0.0481961  
H61      H      0.354690000000     0.032170000000     0.170070000000     0.0481987  
H62      H      0.390490000000     0.034970000000     0.204610000000     0.041143   
H63      H      0.430360000000     0.465970000000     0.168140000000     0.042095   
H64      H      0.395250000000     0.463780000000     0.133890000000     0.047846   
H65      H      0.452910000000     0.141620000000     0.338040000000     0.0479802  
H66      H      0.449790000000     0.103330000000     0.306720000000     0.0383139  
H67      H      0.034750000000     0.086380000000     0.318980000000     0.0363474  
H68      H      0.038430000000     0.125340000000     0.348800000000     0.0467046  
H69      H      0.024890000000     0.132700000000     0.393160000000     0.0475615  
H70      H      0.025450000000     0.163330000000     0.431020000000     0.0426371  
H71      H      0.468890000000     0.216130000000     0.389970000000     0.0408151  
H72      H      0.469230000000     0.185560000000     0.350970000000     0.0468023  
H73      H      0.982640000000     0.410740000000     0.384580000000     0.0487598  
H74      H      0.984870000000     0.448130000000     0.352770000000     0.042634   
H75      H      0.519870000000     0.394730000000     0.292840000000     0.0416961  
H76      H      0.517240000000     0.357010000000     0.325110000000     0.0479181  
H77      H      0.478570000000     0.329810000000     0.355150000000     0.0477224  
H78      H      0.476870000000     0.296510000000     0.392060000000     0.0407883  
H79      H      0.022770000000     0.351470000000     0.442570000000     0.0441249  
H80      H      0.024000000000     0.384270000000     0.406130000000     0.0485613  
H81      H      0.046880000000     0.364320000000     0.169620000000     0.0476522  
H82      H      0.046290000000     0.400590000000     0.203350000000     0.0398388  
H83      H      0.465020000000     0.422030000000     0.178820000000     0.03768    
H84      H      0.465240000000     0.385480000000     0.145880000000     0.0467389  
H85      H      0.528650000000     0.321160000000     0.152270000000     0.0472258  
H86      H      0.532220000000     0.291620000000     0.112660000000     0.0411254  
H87      H      0.991520000000     0.352350000000     0.064450000000     0.0427892  
H88      H      0.988550000000     0.381710000000     0.103470000000     0.0482546  
H89      H      0.006720000000     0.143730000000     0.173070000000     0.0472155  
H90      H      0.999070000000     0.108290000000     0.206680000000     0.0369199  
H91      H      0.475380000000     0.052920000000     0.143510000000     0.0385483  
H92      H      0.481000000000     0.088510000000     0.110110000000     0.0476821  
H93      H      0.014820000000     0.111030000000     0.087590000000     0.0474912  
H94      H      0.021580000000     0.144420000000     0.052250000000     0.0389462  
H95      H      0.497700000000     0.208150000000     0.106990000000     0.0365068  
H96      H      0.488980000000     0.174530000000     0.142170000000     0.047565   
H97      H      0.360030000000     0.333320000000     0.965240000000     0.0479949  
H98      H      0.399640000000     0.303750000000     0.961200000000     0.0409786  
H99      H      0.434220000000     0.340370000000     0.532650000000     0.0397748  
H100     H      0.394420000000     0.369630000000     0.536770000000     0.048008   
H101     H      0.341870000000     0.366630000000     0.544550000000     0.0480466  
H102     H      0.308090000000     0.403100000000     0.547100000000     0.0392736  
H103     H      0.322600000000     0.422050000000     0.963170000000     0.0368031  
H104     H      0.355820000000     0.385490000000     0.960550000000     0.0479009  
H105     H      0.390830000000     0.091080000000     0.998990000000     0.0486402  
H106     H      0.358360000000     0.054180000000     0.998280000000     0.0426529  
H107     H      0.294640000000     0.110470000000     0.476950000000     0.0405068  
H108     H      0.327210000000     0.147740000000     0.478510000000     0.0476054  
H109     H      0.366250000000     0.166190000000     0.454950000000     0.0479307  
H110     H      0.401940000000     0.200660000000     0.454790000000     0.0399482  
H111     H      0.438190000000     0.163180000000     0.024930000000     0.0418855  
H112     H      0.402290000000     0.129530000000     0.025680000000     0.0482533  
H113     H      0.119570000000     0.353010000000     0.960810000000     0.0465967  
H114     H      0.080850000000     0.322740000000     0.964850000000     0.0368306  
H115     H      0.103390000000     0.304570000000     0.547110000000     0.0400391  
H116     H      0.141310000000     0.336230000000     0.543800000000     0.0479984  
H117     H      0.128490000000     0.396320000000     0.476340000000     0.0475369  
H118     H      0.158970000000     0.434440000000     0.477170000000     0.0437622  
H119     H      0.214150000000     0.389820000000     0.028450000000     0.0424235  
H120     H      0.183800000000     0.350610000000     0.026560000000     0.0472172  
H121     H      0.145450000000     0.170830000000     0.535730000000     0.0486726  
H122     H      0.109330000000     0.205200000000     0.538320000000     0.0416179  
H123     H      0.073170000000     0.171660000000     0.966030000000     0.0420041  
H124     H      0.108540000000     0.137550000000     0.964070000000     0.0479537  
H125     H      0.116080000000     0.098430000000     0.003080000000     0.0494655  
H126     H      0.146040000000     0.059270000000     0.999750000000     0.0413332  
H127     H      0.215160000000     0.112800000000     0.493020000000     0.0393937  
H128     H      0.184830000000     0.152120000000     0.496870000000     0.048558   
H129     H      0.400210000000     0.484930000000     0.879100000000     0.0480389  
H130     H      0.438860000000     0.487940000000     0.849130000000     0.0428258  
H131     H      0.389240000000     0.028310000000     0.789390000000     0.0420541  
H132     H      0.350020000000     0.024560000000     0.819410000000     0.0472634  
H133     H      0.333750000000     0.043840000000     0.861470000000     0.0479682  
H134     H      0.300570000000     0.045110000000     0.898090000000     0.0417166  
H135     H      0.325350000000     0.464960000000     0.923000000000     0.0384553  
H136     H      0.357720000000     0.463240000000     0.885970000000     0.0467681  
H137     H      0.112310000000     0.040940000000     0.864530000000     0.0482004  
H138     H      0.072700000000     0.037520000000     0.835160000000     0.0397643  
H139     H      0.103650000000     0.462440000000     0.802420000000     0.0406203  
H140     H      0.143210000000     0.465820000000     0.832160000000     0.0478945  
H141     H      0.146470000000     0.463040000000     0.884140000000     0.0479252  
H142     H      0.178410000000     0.465600000000     0.921660000000     0.0382013  
H143     H      0.197140000000     0.048440000000     0.900490000000     0.0400132  
H144     H      0.164700000000     0.045930000000     0.862980000000     0.0479238  
H145     H      0.098750000000     0.025870000000     0.626460000000     0.0481877  
H146     H      0.062840000000     0.025520000000     0.660000000000     0.0415259  
H147     H      0.100400000000     0.457090000000     0.699560000000     0.0397512  
H148     H      0.136060000000     0.456750000000     0.665200000000     0.0478213  
H149     H      0.174700000000     0.480120000000     0.645980000000     0.0476026  
H150     H      0.207340000000     0.478280000000     0.608840000000     0.0400495  
H151     H      0.143280000000     0.997490000000     0.552370000000     0.0423983  
H152     H      0.110800000000     0.998420000000     0.589050000000     0.0484569  
H153     H      0.385780000000     0.502110000000     0.596280000000     0.0490376  
H154     H      0.355750000000     0.499520000000     0.557240000000     0.0412945  
H155     H      0.286770000000     0.991410000000     0.610560000000     0.0392442  
H156     H      0.317140000000     0.994490000000     0.649760000000     0.0482013  
H157     H      0.354690000000     0.032170000000     0.670070000000     0.0481591  
H158     H      0.390490000000     0.034970000000     0.704610000000     0.0411453  
H159     H      0.430350000000     0.465970000000     0.668140000000     0.0421008  
H160     H      0.395250000000     0.463780000000     0.633890000000     0.0478281  
H161     H      0.452910000000     0.141620000000     0.838040000000     0.0479787  
H162     H      0.449790000000     0.103330000000     0.806720000000     0.0383143  
H163     H      0.034750000000     0.086380000000     0.818990000000     0.0363688  
H164     H      0.038430000000     0.125340000000     0.848810000000     0.0466651  
H165     H      0.024890000000     0.132700000000     0.893170000000     0.0475659  
H166     H      0.025440000000     0.163320000000     0.931030000000     0.0426153  
H167     H      0.468890000000     0.216130000000     0.889970000000     0.0408193  
H168     H      0.469230000000     0.185560000000     0.850970000000     0.0468012  
H169     H      0.982640000000     0.410740000000     0.884580000000     0.0487275  
H170     H      0.984870000000     0.448130000000     0.852760000000     0.0426512  
H171     H      0.519870000000     0.394730000000     0.792840000000     0.0416884  
H172     H      0.517240000000     0.357010000000     0.825100000000     0.0479118  
H173     H      0.478570000000     0.329810000000     0.855150000000     0.0477207  
H174     H      0.476870000000     0.296510000000     0.892060000000     0.0407932  
H175     H      0.022770000000     0.351470000000     0.942570000000     0.0440911  
H176     H      0.024000000000     0.384270000000     0.906130000000     0.0485422  
H177     H      0.046880000000     0.364310000000     0.669620000000     0.0475908  
H178     H      0.046290000000     0.400590000000     0.703350000000     0.0398563  
H179     H      0.465020000000     0.422030000000     0.678820000000     0.0376792  
H180     H      0.465240000000     0.385480000000     0.645880000000     0.046734   
H181     H      0.528650000000     0.321160000000     0.652270000000     0.0472216  
H182     H      0.532220000000     0.291620000000     0.612660000000     0.0411223  
H183     H      0.991520000000     0.352350000000     0.564450000000     0.0427728  
H184     H      0.988550000000     0.381710000000     0.603470000000     0.0482372  
H185     H      0.006720000000     0.143730000000     0.673060000000     0.0471924  
H186     H      0.999070000000     0.108290000000     0.706680000000     0.0369181  
H187     H      0.475380000000     0.052920000000     0.643510000000     0.0385328  
H188     H      0.481000000000     0.088500000000     0.610110000000     0.0476608  
H189     H      0.014820000000     0.111020000000     0.587590000000     0.0474324  
H190     H      0.021570000000     0.144410000000     0.552250000000     0.0388798  
H191     H      0.497700000000     0.208140000000     0.606990000000     0.0365174  
H192     H      0.488980000000     0.174530000000     0.642170000000     0.0475154  
H193     H      0.360030000000     0.833320000000     0.465240000000     0.0479197  
H194     H      0.399640000000     0.803750000000     0.461190000000     0.0410517  
H195     H      0.434210000000     0.840370000000     0.032650000000     0.0396692  
H196     H      0.394420000000     0.869630000000     0.036770000000     0.0481023  
H197     H      0.341870000000     0.866630000000     0.044550000000     0.0480619  
H198     H      0.308090000000     0.903110000000     0.047100000000     0.0392923  
H199     H      0.322600000000     0.922050000000     0.463170000000     0.0367372  
H200     H      0.355820000000     0.885500000000     0.460550000000     0.0478904  
H201     H      0.390830000000     0.591070000000     0.498980000000     0.04866    
H202     H      0.358360000000     0.554180000000     0.498270000000     0.0425866  
H203     H      0.294640000000     0.610470000000     0.976950000000     0.0405121  
H204     H      0.327200000000     0.647740000000     0.978510000000     0.0476114  
H205     H      0.366250000000     0.666190000000     0.954950000000     0.0479061  
H206     H      0.401940000000     0.700660000000     0.954790000000     0.0399176  
H207     H      0.438200000000     0.663170000000     0.524920000000     0.0418883  
H208     H      0.402300000000     0.629520000000     0.525670000000     0.0481887  
H209     H      0.119570000000     0.853020000000     0.460810000000     0.0465474  
H210     H      0.080850000000     0.822750000000     0.464850000000     0.0368311  
H211     H      0.103380000000     0.804580000000     0.047110000000     0.0400717  
H212     H      0.141300000000     0.836230000000     0.043810000000     0.0480066  
H213     H      0.128490000000     0.896320000000     0.976330000000     0.0474856  
H214     H      0.158970000000     0.934440000000     0.977170000000     0.0437778  
H215     H      0.214150000000     0.889820000000     0.528450000000     0.0424028  
H216     H      0.183800000000     0.850610000000     0.526560000000     0.0471875  
H217     H      0.145450000000     0.670830000000     0.035730000000     0.0484819  
H218     H      0.109330000000     0.705200000000     0.038320000000     0.0417384  
H219     H      0.073180000000     0.671660000000     0.466040000000     0.0418745  
H220     H      0.108540000000     0.637560000000     0.464070000000     0.0481683  
H221     H      0.116080000000     0.598430000000     0.503080000000     0.0492976  
H222     H      0.146040000000     0.559270000000     0.499750000000     0.0412414  
H223     H      0.215150000000     0.612800000000     0.993030000000     0.0393043  
H224     H      0.184820000000     0.652120000000     0.996880000000     0.0486027  
H225     H      0.400210000000     0.984920000000     0.379100000000     0.0480236  
H226     H      0.438860000000     0.987930000000     0.349130000000     0.0428147  
H227     H      0.389240000000     0.528310000000     0.289390000000     0.0419882  
H228     H      0.350020000000     0.524560000000     0.319410000000     0.0471985  
H229     H      0.333750000000     0.543830000000     0.361460000000     0.0479642  
H230     H      0.300570000000     0.545110000000     0.398080000000     0.0416899  
H231     H      0.325340000000     0.964950000000     0.423000000000     0.0385075  
H232     H      0.357720000000     0.963240000000     0.385960000000     0.046806   
H233     H      0.112300000000     0.540950000000     0.364530000000     0.0479887  
H234     H      0.072700000000     0.537520000000     0.335160000000     0.0399482  
H235     H      0.103660000000     0.962440000000     0.302420000000     0.0404354  
H236     H      0.143210000000     0.965820000000     0.332160000000     0.0480508  
H237     H      0.146470000000     0.963040000000     0.384140000000     0.0479364  
H238     H      0.178410000000     0.965590000000     0.421660000000     0.0382618  
H239     H      0.197140000000     0.548440000000     0.400480000000     0.03996    
H240     H      0.164700000000     0.545940000000     0.362980000000     0.0478758  
H241     H      0.098740000000     0.525860000000     0.126450000000     0.0481597  
H242     H      0.062830000000     0.525510000000     0.159990000000     0.041506   
H243     H      0.100400000000     0.957090000000     0.199560000000     0.039701   
H244     H      0.136060000000     0.956750000000     0.165200000000     0.0478127  
H245     H      0.174710000000     0.980110000000     0.145990000000     0.0475276  
H246     H      0.207350000000     0.978270000000     0.108840000000     0.0399994  
H247     H      0.143280000000     0.497480000000     0.052360000000     0.0425781  
H248     H      0.110790000000     0.498410000000     0.089040000000     0.0486113  
H249     H      0.385780000000     0.002110000000     0.096270000000     0.0498637  
H250     H      0.355750000000     0.999530000000     0.057240000000     0.0410865  
H251     H      0.286770000000     0.491410000000     0.110560000000     0.0394084  
H252     H      0.317140000000     0.494490000000     0.149760000000     0.048202   
H253     H      0.354690000000     0.532180000000     0.170070000000     0.0483503  
H254     H      0.390490000000     0.534970000000     0.204610000000     0.0409375  
H255     H      0.430360000000     0.965970000000     0.168130000000     0.0423066  
H256     H      0.395260000000     0.963780000000     0.133880000000     0.0475875  
H257     H      0.452910000000     0.641620000000     0.338040000000     0.0479745  
H258     H      0.449790000000     0.603330000000     0.306720000000     0.0383067  
H259     H      0.034750000000     0.586380000000     0.318980000000     0.0363287  
H260     H      0.038430000000     0.625340000000     0.348810000000     0.0466602  
H261     H      0.024890000000     0.632700000000     0.393160000000     0.0475768  
H262     H      0.025450000000     0.663330000000     0.431020000000     0.0426222  
H263     H      0.468890000000     0.716130000000     0.389970000000     0.0408124  
H264     H      0.469230000000     0.685560000000     0.350970000000     0.046807   
H265     H      0.982640000000     0.910740000000     0.384580000000     0.048764   
H266     H      0.984870000000     0.948130000000     0.352770000000     0.0425528  
H267     H      0.519860000000     0.894730000000     0.292840000000     0.041672   
H268     H      0.517240000000     0.857010000000     0.325110000000     0.0479115  
H269     H      0.478570000000     0.829810000000     0.355150000000     0.0477373  
H270     H      0.476870000000     0.796510000000     0.392060000000     0.0407604  
H271     H      0.022770000000     0.851470000000     0.442570000000     0.0441139  
H272     H      0.024000000000     0.884270000000     0.406130000000     0.0485409  
H273     H      0.046880000000     0.864320000000     0.169620000000     0.0476545  
H274     H      0.046290000000     0.900590000000     0.203350000000     0.039826   
H275     H      0.465020000000     0.922030000000     0.178820000000     0.0376567  
H276     H      0.465250000000     0.885480000000     0.145870000000     0.0467249  
H277     H      0.528650000000     0.821160000000     0.152270000000     0.0472334  
H278     H      0.532220000000     0.791620000000     0.112660000000     0.0411218  
H279     H      0.991530000000     0.852360000000     0.064450000000     0.0427871  
H280     H      0.988560000000     0.881710000000     0.103470000000     0.0482828  
H281     H      0.006720000000     0.643730000000     0.173070000000     0.0471729  
H282     H      0.999070000000     0.608290000000     0.206680000000     0.0369079  
H283     H      0.475380000000     0.552910000000     0.143510000000     0.0384426  
H284     H      0.481010000000     0.588500000000     0.110110000000     0.0476492  
H285     H      0.014830000000     0.611030000000     0.087590000000     0.047443   
H286     H      0.021580000000     0.644420000000     0.052250000000     0.0389264  
H287     H      0.497700000000     0.708140000000     0.106990000000     0.0365265  
H288     H      0.488980000000     0.674530000000     0.142170000000     0.0475527  
H289     H      0.360030000000     0.833320000000     0.965240000000     0.0480011  
H290     H      0.399640000000     0.803750000000     0.961200000000     0.0409742  
H291     H      0.434220000000     0.840370000000     0.532650000000     0.0397702  
H292     H      0.394420000000     0.869630000000     0.536770000000     0.0479934  
H293     H      0.341870000000     0.866630000000     0.544550000000     0.0480441  
H294     H      0.308090000000     0.903100000000     0.547100000000     0.0392811  
H295     H      0.322600000000     0.922050000000     0.963170000000     0.0367816  
H296     H      0.355820000000     0.885490000000     0.960550000000     0.0478788  
H297     H      0.390830000000     0.591080000000     0.998990000000     0.0485908  
H298     H      0.358360000000     0.554180000000     0.998280000000     0.0425314  
H299     H      0.294640000000     0.610470000000     0.476960000000     0.040496   
H300     H      0.327210000000     0.647740000000     0.478510000000     0.0476084  
H301     H      0.366250000000     0.666190000000     0.454950000000     0.0479259  
H302     H      0.401940000000     0.700660000000     0.454790000000     0.039952   
H303     H      0.438190000000     0.663170000000     0.024930000000     0.0418638  
H304     H      0.402290000000     0.629530000000     0.025680000000     0.0482235  
H305     H      0.119570000000     0.853010000000     0.960810000000     0.0465724  
H306     H      0.080850000000     0.822740000000     0.964850000000     0.0368434  
H307     H      0.103390000000     0.804570000000     0.547110000000     0.0400651  
H308     H      0.141310000000     0.836230000000     0.543810000000     0.0479867  
H309     H      0.128490000000     0.896320000000     0.476340000000     0.0475106  
H310     H      0.158970000000     0.934440000000     0.477180000000     0.0437466  
H311     H      0.214150000000     0.889820000000     0.028460000000     0.0424285  
H312     H      0.183800000000     0.850610000000     0.026560000000     0.0472249  
H313     H      0.145450000000     0.670830000000     0.535730000000     0.0486519  
H314     H      0.109330000000     0.705200000000     0.538320000000     0.0416181  
H315     H      0.073180000000     0.671660000000     0.966040000000     0.0420187  
H316     H      0.108540000000     0.637550000000     0.964070000000     0.0479299  
H317     H      0.116080000000     0.598430000000     0.003080000000     0.0493965  
H318     H      0.146040000000     0.559270000000     0.999750000000     0.0412551  
H319     H      0.215150000000     0.612800000000     0.493030000000     0.0393781  
H320     H      0.184830000000     0.652120000000     0.496880000000     0.0485458  
H321     H      0.400210000000     0.984930000000     0.879100000000     0.048028   
H322     H      0.438860000000     0.987940000000     0.849120000000     0.0428284  
H323     H      0.389240000000     0.528310000000     0.789390000000     0.0419772  
H324     H      0.350020000000     0.524560000000     0.819410000000     0.0472028  
H325     H      0.333750000000     0.543830000000     0.861460000000     0.0479641  
H326     H      0.300570000000     0.545110000000     0.898090000000     0.0416902  
H327     H      0.325340000000     0.964950000000     0.923000000000     0.0384965  
H328     H      0.357720000000     0.963240000000     0.885970000000     0.0468008  
H329     H      0.112300000000     0.540950000000     0.864530000000     0.0479805  
H330     H      0.072700000000     0.537520000000     0.835160000000     0.0399434  
H331     H      0.103660000000     0.962440000000     0.802420000000     0.040438   
H332     H      0.143210000000     0.965820000000     0.832160000000     0.0480504  
H333     H      0.146470000000     0.963040000000     0.884140000000     0.0479237  
H334     H      0.178410000000     0.965590000000     0.921660000000     0.038249   
H335     H      0.197140000000     0.548440000000     0.900490000000     0.0399615  
H336     H      0.164700000000     0.545940000000     0.862980000000     0.0478771  
H337     H      0.098740000000     0.525860000000     0.626450000000     0.0481398  
H338     H      0.062830000000     0.525510000000     0.659990000000     0.0415075  
H339     H      0.100400000000     0.957090000000     0.699560000000     0.0396931  
H340     H      0.136060000000     0.956750000000     0.665200000000     0.0478136  
H341     H      0.174710000000     0.980110000000     0.645990000000     0.0475354  
H342     H      0.207350000000     0.978270000000     0.608840000000     0.0399804  
H343     H      0.143280000000     0.497480000000     0.552360000000     0.0425322  
H344     H      0.110790000000     0.498410000000     0.589040000000     0.0485735  
H345     H      0.385780000000     0.002110000000     0.596280000000     0.0498551  
H346     H      0.355750000000     0.999520000000     0.557240000000     0.0410156  
H347     H      0.286770000000     0.491420000000     0.610560000000     0.039396   
H348     H      0.317140000000     0.494490000000     0.649760000000     0.0482046  
H349     H      0.354690000000     0.532180000000     0.670070000000     0.0483314  
H350     H      0.390490000000     0.534970000000     0.704610000000     0.0409552  
H351     H      0.430360000000     0.965970000000     0.668140000000     0.0423141  
H352     H      0.395260000000     0.963780000000     0.633880000000     0.0475708  
H353     H      0.452910000000     0.641620000000     0.838040000000     0.0479789  
H354     H      0.449790000000     0.603330000000     0.806720000000     0.0383037  
H355     H      0.034750000000     0.586380000000     0.818990000000     0.0363311  
H356     H      0.038430000000     0.625330000000     0.848810000000     0.0466631  
H357     H      0.024890000000     0.632700000000     0.893170000000     0.0475293  
H358     H      0.025440000000     0.663320000000     0.931030000000     0.0426305  
H359     H      0.468890000000     0.716130000000     0.889970000000     0.0407922  
H360     H      0.469230000000     0.685560000000     0.850970000000     0.0468182  
H361     H      0.982640000000     0.910740000000     0.884580000000     0.0487434  
H362     H      0.984870000000     0.948130000000     0.852760000000     0.0425681  
H363     H      0.519860000000     0.894730000000     0.792840000000     0.0416616  
H364     H      0.517240000000     0.857010000000     0.825110000000     0.0479341  
H365     H      0.478570000000     0.829810000000     0.855150000000     0.0477178  
H366     H      0.476870000000     0.796510000000     0.892060000000     0.0407913  
H367     H      0.022770000000     0.851470000000     0.942570000000     0.044078   
H368     H      0.024000000000     0.884270000000     0.906130000000     0.0485266  
H369     H      0.046880000000     0.864320000000     0.669620000000     0.0476519  
H370     H      0.046290000000     0.900590000000     0.703350000000     0.0398346  
H371     H      0.465020000000     0.922030000000     0.678820000000     0.0376353  
H372     H      0.465250000000     0.885480000000     0.645870000000     0.0467285  
H373     H      0.528640000000     0.821160000000     0.652270000000     0.0472446  
H374     H      0.532210000000     0.791620000000     0.612660000000     0.0411249  
H375     H      0.991530000000     0.852360000000     0.564450000000     0.0427768  
H376     H      0.988550000000     0.881710000000     0.603460000000     0.0482305  
H377     H      0.006720000000     0.643730000000     0.673060000000     0.0471809  
H378     H      0.999070000000     0.608290000000     0.706680000000     0.0369106  
H379     H      0.475380000000     0.552910000000     0.643510000000     0.038432   
H380     H      0.481000000000     0.588500000000     0.610110000000     0.0476219  
H381     H      0.014820000000     0.611020000000     0.587580000000     0.0473766  
H382     H      0.021580000000     0.644410000000     0.552250000000     0.0388566  
H383     H      0.497700000000     0.708140000000     0.606990000000     0.03653    
H384     H      0.488980000000     0.674530000000     0.642170000000     0.047503   
H385     H      0.860030000000     0.333320000000     0.465240000000     0.0479203  
H386     H      0.899640000000     0.303750000000     0.461200000000     0.0410673  
H387     H      0.934220000000     0.340370000000     0.032650000000     0.0397239  
H388     H      0.894420000000     0.369630000000     0.036770000000     0.0481582  
H389     H      0.841870000000     0.366630000000     0.044550000000     0.0480641  
H390     H      0.808090000000     0.403110000000     0.047100000000     0.0393101  
H391     H      0.822600000000     0.422050000000     0.463170000000     0.0367595  
H392     H      0.855820000000     0.385490000000     0.460550000000     0.0479131  
H393     H      0.890840000000     0.091070000000     0.498980000000     0.0486942  
H394     H      0.858370000000     0.054180000000     0.498260000000     0.0427246  
H395     H      0.794640000000     0.110470000000     0.976950000000     0.0405032  
H396     H      0.827210000000     0.147740000000     0.978510000000     0.0476317  
H397     H      0.866250000000     0.166190000000     0.954950000000     0.0478864  
H398     H      0.901940000000     0.200660000000     0.954790000000     0.0399611  
H399     H      0.938200000000     0.163160000000     0.524920000000     0.0419699  
H400     H      0.902300000000     0.129520000000     0.525660000000     0.0482514  
H401     H      0.619570000000     0.353020000000     0.460810000000     0.0465458  
H402     H      0.580850000000     0.322750000000     0.464850000000     0.0368578  
H403     H      0.603380000000     0.304580000000     0.047110000000     0.0400576  
H404     H      0.641300000000     0.336230000000     0.043800000000     0.0480317  
H405     H      0.628490000000     0.396320000000     0.976330000000     0.0475135  
H406     H      0.658980000000     0.434430000000     0.977170000000     0.0438381  
H407     H      0.714150000000     0.389820000000     0.528450000000     0.0424021  
H408     H      0.683800000000     0.350610000000     0.526550000000     0.0471797  
H409     H      0.645450000000     0.170830000000     0.035720000000     0.0484882  
H410     H      0.609330000000     0.205200000000     0.038310000000     0.0417741  
H411     H      0.573180000000     0.171660000000     0.466040000000     0.0419131  
H412     H      0.608540000000     0.137550000000     0.464070000000     0.0481676  
H413     H      0.616080000000     0.098430000000     0.503080000000     0.0493648  
H414     H      0.646040000000     0.059270000000     0.499750000000     0.0413697  
H415     H      0.715150000000     0.112800000000     0.993030000000     0.0393176  
H416     H      0.684820000000     0.152120000000     0.996870000000     0.0486398  
H417     H      0.900210000000     0.484930000000     0.379100000000     0.0480766  
H418     H      0.938860000000     0.487940000000     0.349130000000     0.0428752  
H419     H      0.889240000000     0.028310000000     0.289390000000     0.0420562  
H420     H      0.850020000000     0.024560000000     0.319410000000     0.0472624  
H421     H      0.833750000000     0.043840000000     0.361470000000     0.0479716  
H422     H      0.800570000000     0.045110000000     0.398090000000     0.0417183  
H423     H      0.825350000000     0.464960000000     0.423000000000     0.0384797  
H424     H      0.857720000000     0.463240000000     0.385970000000     0.0468142  
H425     H      0.612300000000     0.040940000000     0.364530000000     0.0482253  
H426     H      0.572700000000     0.037520000000     0.335160000000     0.0397942  
H427     H      0.603660000000     0.462450000000     0.302420000000     0.0406112  
H428     H      0.643210000000     0.465830000000     0.332160000000     0.0479349  
H429     H      0.646470000000     0.463040000000     0.384140000000     0.0479082  
H430     H      0.678420000000     0.465600000000     0.421660000000     0.0382375  
H431     H      0.697140000000     0.048440000000     0.400490000000     0.0400045  
H432     H      0.664700000000     0.045940000000     0.362980000000     0.0478989  
H433     H      0.598750000000     0.025860000000     0.126460000000     0.0482552  
H434     H      0.562830000000     0.025510000000     0.160000000000     0.0416224  
H435     H      0.600400000000     0.457090000000     0.199560000000     0.0397405  
H436     H      0.636060000000     0.456750000000     0.165200000000     0.0478615  
H437     H      0.674700000000     0.480120000000     0.145980000000     0.0476034  
H438     H      0.707340000000     0.478280000000     0.108840000000     0.0400441  
H439     H      0.643280000000     0.997490000000     0.052360000000     0.0424967  
H440     H      0.610800000000     0.998410000000     0.089050000000     0.0485503  
H441     H      0.885780000000     0.502110000000     0.096280000000     0.0490889  
H442     H      0.855750000000     0.499530000000     0.057240000000     0.0413616  
H443     H      0.786770000000     0.991410000000     0.110560000000     0.0392566  
H444     H      0.817140000000     0.994480000000     0.149760000000     0.0481946  
H445     H      0.854690000000     0.032170000000     0.170070000000     0.0481671  
H446     H      0.890490000000     0.034960000000     0.204610000000     0.0411519  
H447     H      0.930360000000     0.465970000000     0.168140000000     0.0421493  
H448     H      0.895260000000     0.463780000000     0.133880000000     0.0478422  
H449     H      0.952910000000     0.141620000000     0.338040000000     0.0479901  
H450     H      0.949790000000     0.103330000000     0.306720000000     0.0383377  
H451     H      0.534750000000     0.086390000000     0.318980000000     0.0363219  
H452     H      0.538430000000     0.125340000000     0.348800000000     0.0466711  
H453     H      0.524890000000     0.132700000000     0.393160000000     0.0475468  
H454     H      0.525450000000     0.163330000000     0.431020000000     0.0426474  
H455     H      0.968890000000     0.216130000000     0.389970000000     0.0408421  
H456     H      0.969230000000     0.185570000000     0.350970000000     0.0468478  
H457     H      0.482640000000     0.410740000000     0.384580000000     0.0487383  
H458     H      0.484870000000     0.448130000000     0.352760000000     0.0426707  
H459     H      0.019860000000     0.394730000000     0.292830000000     0.0416247  
H460     H      0.017240000000     0.357010000000     0.325100000000     0.0478425  
H461     H      0.978570000000     0.329810000000     0.355150000000     0.0476606  
H462     H      0.976870000000     0.296510000000     0.392060000000     0.0409184  
H463     H      0.522770000000     0.351470000000     0.442580000000     0.0440395  
H464     H      0.524000000000     0.384270000000     0.406140000000     0.0487283  
H465     H      0.546880000000     0.364310000000     0.169630000000     0.0476521  
H466     H      0.546290000000     0.400580000000     0.203350000000     0.0398497  
H467     H      0.965010000000     0.422030000000     0.178820000000     0.0376444  
H468     H      0.965240000000     0.385470000000     0.145880000000     0.0467057  
H469     H      0.028650000000     0.321170000000     0.152260000000     0.0472119  
H470     H      0.032220000000     0.291620000000     0.112660000000     0.041044   
H471     H      0.491530000000     0.352350000000     0.064450000000     0.0427805  
H472     H      0.488560000000     0.381710000000     0.103470000000     0.0482538  
H473     H      0.506720000000     0.143730000000     0.173070000000     0.0475989  
H474     H      0.499080000000     0.108290000000     0.206680000000     0.0368045  
H475     H      0.975370000000     0.052920000000     0.143510000000     0.0385678  
H476     H      0.980990000000     0.088510000000     0.110110000000     0.0478869  
H477     H      0.514830000000     0.111020000000     0.087590000000     0.0477701  
H478     H      0.521590000000     0.144420000000     0.052250000000     0.0388226  
H479     H      0.997700000000     0.208150000000     0.106990000000     0.0373075  
H480     H      0.988980000000     0.174540000000     0.142170000000     0.047208   
H481     H      0.860030000000     0.333320000000     0.965240000000     0.0479996  
H482     H      0.899640000000     0.303750000000     0.961200000000     0.0409822  
H483     H      0.934220000000     0.340370000000     0.532650000000     0.0398268  
H484     H      0.894420000000     0.369630000000     0.536770000000     0.048053   
H485     H      0.841870000000     0.366630000000     0.544560000000     0.0480154  
H486     H      0.808090000000     0.403100000000     0.547100000000     0.0392779  
H487     H      0.822600000000     0.422050000000     0.963170000000     0.0368037  
H488     H      0.855820000000     0.385490000000     0.960550000000     0.0479164  
H489     H      0.890830000000     0.091080000000     0.998990000000     0.0486692  
H490     H      0.858360000000     0.054180000000     0.998270000000     0.0426618  
H491     H      0.794640000000     0.110470000000     0.476960000000     0.0405104  
H492     H      0.827210000000     0.147740000000     0.478510000000     0.0475981  
H493     H      0.866250000000     0.166190000000     0.454950000000     0.0479366  
H494     H      0.901940000000     0.200660000000     0.454790000000     0.0399568  
H495     H      0.938190000000     0.163170000000     0.024920000000     0.0420004  
H496     H      0.902290000000     0.129530000000     0.025670000000     0.0482825  
H497     H      0.619570000000     0.353010000000     0.960810000000     0.0466084  
H498     H      0.580850000000     0.322740000000     0.964850000000     0.0368526  
H499     H      0.603390000000     0.304570000000     0.547110000000     0.0400694  
H500     H      0.641310000000     0.336230000000     0.543800000000     0.0479869  
H501     H      0.628490000000     0.396320000000     0.476340000000     0.0475582  
H502     H      0.658970000000     0.434440000000     0.477170000000     0.0437591  
H503     H      0.714150000000     0.389820000000     0.028450000000     0.0424335  
H504     H      0.683800000000     0.350610000000     0.026560000000     0.0472105  
H505     H      0.645450000000     0.170830000000     0.535730000000     0.0486773  
H506     H      0.609330000000     0.205200000000     0.538320000000     0.0416117  
H507     H      0.573170000000     0.171650000000     0.966040000000     0.042054   
H508     H      0.608540000000     0.137550000000     0.964070000000     0.0479826  
H509     H      0.616080000000     0.098430000000     0.003080000000     0.0494666  
H510     H      0.646040000000     0.059270000000     0.999750000000     0.0413828  
H511     H      0.715160000000     0.112800000000     0.493020000000     0.0393857  
H512     H      0.684830000000     0.152120000000     0.496870000000     0.0485477  
H513     H      0.900210000000     0.484930000000     0.879100000000     0.0480569  
H514     H      0.938860000000     0.487940000000     0.849130000000     0.0428763  
H515     H      0.889240000000     0.028310000000     0.789390000000     0.0420608  
H516     H      0.850020000000     0.024560000000     0.819410000000     0.0472602  
H517     H      0.833750000000     0.043840000000     0.861470000000     0.0479711  
H518     H      0.800570000000     0.045110000000     0.898090000000     0.041715   
H519     H      0.825350000000     0.464960000000     0.923000000000     0.038477   
H520     H      0.857720000000     0.463240000000     0.885970000000     0.0467704  
H521     H      0.612300000000     0.040940000000     0.864530000000     0.0482203  
H522     H      0.572700000000     0.037520000000     0.835160000000     0.039789   
H523     H      0.603660000000     0.462450000000     0.802420000000     0.0406159  
H524     H      0.643210000000     0.465830000000     0.832160000000     0.0479285  
H525     H      0.646470000000     0.463040000000     0.884140000000     0.0479136  
H526     H      0.678420000000     0.465600000000     0.921660000000     0.0382043  
H527     H      0.697140000000     0.048440000000     0.900490000000     0.0400131  
H528     H      0.664700000000     0.045940000000     0.862980000000     0.0478924  
H529     H      0.598750000000     0.025870000000     0.626460000000     0.0482069  
H530     H      0.562830000000     0.025510000000     0.660000000000     0.0416197  
H531     H      0.600400000000     0.457090000000     0.699560000000     0.0397565  
H532     H      0.636060000000     0.456750000000     0.665200000000     0.0478246  
H533     H      0.674700000000     0.480120000000     0.645980000000     0.0476082  
H534     H      0.707340000000     0.478280000000     0.608840000000     0.0400306  
H535     H      0.643280000000     0.997490000000     0.552360000000     0.0424203  
H536     H      0.610800000000     0.998410000000     0.589050000000     0.0485308  
H537     H      0.885780000000     0.502110000000     0.596280000000     0.0490667  
H538     H      0.855750000000     0.499520000000     0.557240000000     0.0412961  
H539     H      0.786770000000     0.991410000000     0.610560000000     0.0392467  
H540     H      0.817140000000     0.994490000000     0.649760000000     0.0481984  
H541     H      0.854690000000     0.032170000000     0.670070000000     0.0481569  
H542     H      0.890490000000     0.034970000000     0.704610000000     0.041151   
H543     H      0.930360000000     0.465970000000     0.668140000000     0.0421078  
H544     H      0.895260000000     0.463780000000     0.633890000000     0.0478841  
H545     H      0.952910000000     0.141630000000     0.838040000000     0.0479509  
H546     H      0.949790000000     0.103340000000     0.806720000000     0.0383555  
H547     H      0.534750000000     0.086380000000     0.818980000000     0.0363275  
H548     H      0.538430000000     0.125340000000     0.848810000000     0.0466536  
H549     H      0.524890000000     0.132690000000     0.893170000000     0.0475134  
H550     H      0.525440000000     0.163320000000     0.931030000000     0.0425974  
H551     H      0.968890000000     0.216130000000     0.889970000000     0.0408317  
H552     H      0.969230000000     0.185570000000     0.850970000000     0.0468623  
H553     H      0.482640000000     0.410740000000     0.884580000000     0.0487219  
H554     H      0.484860000000     0.448130000000     0.852760000000     0.0426648  
H555     H      0.019860000000     0.394730000000     0.792830000000     0.0416362  
H556     H      0.017240000000     0.357010000000     0.825100000000     0.0478316  
H557     H      0.978570000000     0.329810000000     0.855150000000     0.0476663  
H558     H      0.976870000000     0.296510000000     0.892060000000     0.0409131  
H559     H      0.522770000000     0.351470000000     0.942570000000     0.0440212  
H560     H      0.524000000000     0.384270000000     0.906140000000     0.0487015  
H561     H      0.546880000000     0.364310000000     0.669630000000     0.0476523  
H562     H      0.546290000000     0.400580000000     0.703350000000     0.0398491  
H563     H      0.965010000000     0.422030000000     0.678820000000     0.0376472  
H564     H      0.965240000000     0.385470000000     0.645880000000     0.0466934  
H565     H      0.028650000000     0.321170000000     0.652260000000     0.0472456  
H566     H      0.032220000000     0.291620000000     0.612660000000     0.0410466  
H567     H      0.491530000000     0.352350000000     0.564450000000     0.0427563  
H568     H      0.488550000000     0.381710000000     0.603470000000     0.048211   
H569     H      0.506720000000     0.143730000000     0.673070000000     0.0475934  
H570     H      0.499080000000     0.108290000000     0.706680000000     0.0367974  
H571     H      0.975360000000     0.052920000000     0.643510000000     0.0385446  
H572     H      0.980990000000     0.088510000000     0.610110000000     0.047873   
H573     H      0.514830000000     0.111020000000     0.587590000000     0.0477384  
H574     H      0.521580000000     0.144410000000     0.552250000000     0.0387778  
H575     H      0.997700000000     0.208150000000     0.606990000000     0.0372924  
H576     H      0.988970000000     0.174530000000     0.642170000000     0.0471797  
H577     H      0.860030000000     0.833320000000     0.465240000000     0.0479162  
H578     H      0.899640000000     0.803750000000     0.461200000000     0.0410683  
H579     H      0.934220000000     0.840370000000     0.032650000000     0.0397244  
H580     H      0.894420000000     0.869630000000     0.036770000000     0.0481188  
H581     H      0.841870000000     0.866630000000     0.044560000000     0.048024   
H582     H      0.808090000000     0.903110000000     0.047100000000     0.0393145  
H583     H      0.822600000000     0.922050000000     0.463170000000     0.0367445  
H584     H      0.855820000000     0.885490000000     0.460550000000     0.0478917  
H585     H      0.890840000000     0.591070000000     0.498980000000     0.0486416  
H586     H      0.858370000000     0.554180000000     0.498260000000     0.0426092  
H587     H      0.794640000000     0.610470000000     0.976960000000     0.0404989  
H588     H      0.827210000000     0.647740000000     0.978510000000     0.0476233  
H589     H      0.866250000000     0.666190000000     0.954950000000     0.047892   
H590     H      0.901940000000     0.700660000000     0.954790000000     0.0399531  
H591     H      0.938200000000     0.663160000000     0.524920000000     0.0419604  
H592     H      0.902310000000     0.629520000000     0.525660000000     0.04822    
H593     H      0.619570000000     0.853020000000     0.460810000000     0.0465408  
H594     H      0.580850000000     0.822750000000     0.464850000000     0.0368336  
H595     H      0.603380000000     0.804580000000     0.047110000000     0.0400732  
H596     H      0.641300000000     0.836230000000     0.043810000000     0.0480171  
H597     H      0.628490000000     0.896320000000     0.976330000000     0.0475108  
H598     H      0.658980000000     0.934440000000     0.977170000000     0.0437737  
H599     H      0.714150000000     0.889820000000     0.528450000000     0.0424147  
H600     H      0.683800000000     0.850610000000     0.526560000000     0.0471746  
H601     H      0.645450000000     0.670830000000     0.035720000000     0.0485185  
H602     H      0.609330000000     0.705200000000     0.038320000000     0.0417385  
H603     H      0.573180000000     0.671660000000     0.466040000000     0.0419109  
H604     H      0.608540000000     0.637550000000     0.464070000000     0.0481529  
H605     H      0.616080000000     0.598430000000     0.503080000000     0.0493163  
H606     H      0.646040000000     0.559270000000     0.499750000000     0.0412527  
H607     H      0.715150000000     0.612800000000     0.993030000000     0.0393138  
H608     H      0.684820000000     0.652120000000     0.996880000000     0.0485933  
H609     H      0.900210000000     0.984920000000     0.379100000000     0.0480549  
H610     H      0.938860000000     0.987930000000     0.349130000000     0.0428478  
H611     H      0.889240000000     0.528310000000     0.289390000000     0.0419711  
H612     H      0.850020000000     0.524560000000     0.319410000000     0.0472059  
H613     H      0.833750000000     0.543830000000     0.361460000000     0.0479597  
H614     H      0.800570000000     0.545110000000     0.398080000000     0.0416964  
H615     H      0.825340000000     0.964950000000     0.423000000000     0.0385127  
H616     H      0.857720000000     0.963240000000     0.385960000000     0.0468123  
H617     H      0.612300000000     0.540950000000     0.364530000000     0.0480111  
H618     H      0.572700000000     0.537520000000     0.335160000000     0.0399628  
H619     H      0.603660000000     0.962450000000     0.302420000000     0.0404478  
H620     H      0.643210000000     0.965820000000     0.332160000000     0.0480529  
H621     H      0.646470000000     0.963040000000     0.384140000000     0.0479223  
H622     H      0.678420000000     0.965590000000     0.421660000000     0.0382795  
H623     H      0.697140000000     0.548440000000     0.400490000000     0.0399904  
H624     H      0.664700000000     0.545940000000     0.362980000000     0.0478595  
H625     H      0.598730000000     0.525850000000     0.126440000000     0.048222   
H626     H      0.562820000000     0.525500000000     0.159980000000     0.0415684  
H627     H      0.600400000000     0.957090000000     0.199560000000     0.0397146  
H628     H      0.636060000000     0.956750000000     0.165200000000     0.0477819  
H629     H      0.674710000000     0.980110000000     0.145990000000     0.0475312  
H630     H      0.707350000000     0.978270000000     0.108840000000     0.0399932  
H631     H      0.643280000000     0.497480000000     0.052360000000     0.0426079  
H632     H      0.610790000000     0.498400000000     0.089040000000     0.0486323  
H633     H      0.885780000000     0.002110000000     0.096270000000     0.0498837  
H634     H      0.855750000000     0.999530000000     0.057240000000     0.0411117  
H635     H      0.786770000000     0.491410000000     0.110560000000     0.0393798  
H636     H      0.817140000000     0.494490000000     0.149760000000     0.0482211  
H637     H      0.854690000000     0.532180000000     0.170070000000     0.0483408  
H638     H      0.890480000000     0.534970000000     0.204610000000     0.0409411  
H639     H      0.930370000000     0.965970000000     0.168130000000     0.0423133  
H640     H      0.895260000000     0.963780000000     0.133880000000     0.0476136  
H641     H      0.952910000000     0.641630000000     0.338040000000     0.0479459  
H642     H      0.949790000000     0.603330000000     0.306720000000     0.0383468  
H643     H      0.534750000000     0.586380000000     0.318980000000     0.0362913  
H644     H      0.538430000000     0.625340000000     0.348800000000     0.0466589  
H645     H      0.524890000000     0.632700000000     0.393160000000     0.0475371  
H646     H      0.525450000000     0.663320000000     0.431020000000     0.0426063  
H647     H      0.968890000000     0.716130000000     0.389970000000     0.0408411  
H648     H      0.969230000000     0.685570000000     0.350970000000     0.0468553  
H649     H      0.482640000000     0.910740000000     0.384580000000     0.0487238  
H650     H      0.484860000000     0.948140000000     0.352770000000     0.0425451  
H651     H      0.019860000000     0.894730000000     0.292840000000     0.0416116  
H652     H      0.017230000000     0.857010000000     0.325100000000     0.0478461  
H653     H      0.978560000000     0.829810000000     0.355150000000     0.0476654  
H654     H      0.976860000000     0.796510000000     0.392060000000     0.0409073  
H655     H      0.522770000000     0.851470000000     0.442580000000     0.0440152  
H656     H      0.524000000000     0.884270000000     0.406140000000     0.0486909  
H657     H      0.546880000000     0.864310000000     0.169630000000     0.0476496  
H658     H      0.546290000000     0.900580000000     0.203350000000     0.039847   
H659     H      0.965020000000     0.922030000000     0.178820000000     0.0376287  
H660     H      0.965240000000     0.885480000000     0.145870000000     0.0466642  
H661     H      0.028650000000     0.821170000000     0.152260000000     0.0472085  
H662     H      0.032220000000     0.791620000000     0.112660000000     0.0410476  
H663     H      0.491530000000     0.852360000000     0.064450000000     0.0427573  
H664     H      0.488560000000     0.881710000000     0.103470000000     0.0482671  
H665     H      0.506720000000     0.643730000000     0.173070000000     0.0476048  
H666     H      0.499080000000     0.608290000000     0.206680000000     0.0367723  
H667     H      0.975370000000     0.552920000000     0.143510000000     0.0384572  
H668     H      0.981000000000     0.588510000000     0.110110000000     0.0478481  
H669     H      0.514840000000     0.611020000000     0.087590000000     0.0477075  
H670     H      0.521590000000     0.644420000000     0.052250000000     0.0388216  
H671     H      0.997700000000     0.708150000000     0.106990000000     0.0373032  
H672     H      0.988980000000     0.674530000000     0.142170000000     0.0472168  
H673     H      0.860030000000     0.833320000000     0.965240000000     0.0479976  
H674     H      0.899640000000     0.803750000000     0.961200000000     0.040985   
H675     H      0.934220000000     0.840370000000     0.532650000000     0.0398223  
H676     H      0.894430000000     0.869630000000     0.536770000000     0.0480123  
H677     H      0.841870000000     0.866630000000     0.544560000000     0.0480122  
H678     H      0.808090000000     0.903100000000     0.547100000000     0.0392902  
H679     H      0.822600000000     0.922050000000     0.963170000000     0.0367803  
H680     H      0.855820000000     0.885490000000     0.960550000000     0.0478931  
H681     H      0.890830000000     0.591070000000     0.998990000000     0.0485862  
H682     H      0.858360000000     0.554180000000     0.998270000000     0.0425747  
H683     H      0.794640000000     0.610470000000     0.476960000000     0.0405062  
H684     H      0.827210000000     0.647740000000     0.478510000000     0.0475979  
H685     H      0.866250000000     0.666190000000     0.454950000000     0.047934   
H686     H      0.901940000000     0.700660000000     0.454790000000     0.0399583  
H687     H      0.938190000000     0.663170000000     0.024920000000     0.0419777  
H688     H      0.902300000000     0.629530000000     0.025670000000     0.0482601  
H689     H      0.619570000000     0.853020000000     0.960810000000     0.0465879  
H690     H      0.580850000000     0.822740000000     0.964850000000     0.0368627  
H691     H      0.603390000000     0.804570000000     0.547110000000     0.0400618  
H692     H      0.641310000000     0.836230000000     0.543810000000     0.048001   
H693     H      0.628490000000     0.896320000000     0.476340000000     0.0475219  
H694     H      0.658970000000     0.934440000000     0.477180000000     0.0437521  
H695     H      0.714150000000     0.889820000000     0.028460000000     0.0424091  
H696     H      0.683800000000     0.850610000000     0.026560000000     0.0472277  
H697     H      0.645450000000     0.670830000000     0.535730000000     0.0486561  
H698     H      0.609330000000     0.705200000000     0.538320000000     0.0416216  
H699     H      0.573170000000     0.671660000000     0.966040000000     0.0420437  
H700     H      0.608540000000     0.637550000000     0.964070000000     0.0479773  
H701     H      0.616080000000     0.598430000000     0.003080000000     0.0494103  
H702     H      0.646040000000     0.559270000000     0.999750000000     0.0412763  
H703     H      0.715160000000     0.612800000000     0.493030000000     0.0393695  
H704     H      0.684830000000     0.652120000000     0.496880000000     0.0485424  
H705     H      0.900210000000     0.984930000000     0.879100000000     0.0480496  
H706     H      0.938860000000     0.987940000000     0.849120000000     0.0428737  
H707     H      0.889240000000     0.528310000000     0.789390000000     0.0419863  
H708     H      0.850010000000     0.524560000000     0.819410000000     0.0471651  
H709     H      0.833750000000     0.543830000000     0.861460000000     0.0479607  
H710     H      0.800570000000     0.545110000000     0.898090000000     0.0417044  
H711     H      0.825340000000     0.964950000000     0.923000000000     0.0384963  
H712     H      0.857720000000     0.963240000000     0.885970000000     0.0468108  
H713     H      0.612300000000     0.540950000000     0.864530000000     0.0479956  
H714     H      0.572690000000     0.537520000000     0.835160000000     0.0399712  
H715     H      0.603660000000     0.962450000000     0.802420000000     0.040452   
H716     H      0.643210000000     0.965820000000     0.832160000000     0.0480514  
H717     H      0.646470000000     0.963040000000     0.884140000000     0.0479028  
H718     H      0.678420000000     0.965590000000     0.921660000000     0.0382625  
H719     H      0.697140000000     0.548440000000     0.900490000000     0.0399622  
H720     H      0.664700000000     0.545940000000     0.862980000000     0.0478762  
H721     H      0.598730000000     0.525850000000     0.626440000000     0.0482014  
H722     H      0.562820000000     0.525500000000     0.659980000000     0.0415756  
H723     H      0.600400000000     0.957090000000     0.699560000000     0.0397176  
H724     H      0.636060000000     0.956750000000     0.665200000000     0.0477763  
H725     H      0.674710000000     0.980110000000     0.645990000000     0.0475224  
H726     H      0.707350000000     0.978270000000     0.608840000000     0.0399863  
H727     H      0.643280000000     0.497480000000     0.552360000000     0.0425327  
H728     H      0.610790000000     0.498400000000     0.589040000000     0.0486174  
H729     H      0.885780000000     0.002110000000     0.596270000000     0.0498612  
H730     H      0.855750000000     0.999530000000     0.557240000000     0.0410472  
H731     H      0.786770000000     0.491420000000     0.610560000000     0.0393603  
H732     H      0.817140000000     0.494490000000     0.649760000000     0.0482186  
H733     H      0.854690000000     0.532180000000     0.670070000000     0.0483492  
H734     H      0.890490000000     0.534970000000     0.704610000000     0.0409271  
H735     H      0.930360000000     0.965970000000     0.668130000000     0.0423246  
H736     H      0.895260000000     0.963780000000     0.633880000000     0.0475985  
H737     H      0.952910000000     0.641630000000     0.838040000000     0.0479493  
H738     H      0.949790000000     0.603340000000     0.806720000000     0.0383447  
H739     H      0.534750000000     0.586380000000     0.818980000000     0.0362873  
H740     H      0.538430000000     0.625330000000     0.848810000000     0.0466547  
H741     H      0.524890000000     0.632690000000     0.893170000000     0.0474969  
H742     H      0.525440000000     0.663320000000     0.931030000000     0.0425715  
H743     H      0.968890000000     0.716130000000     0.889970000000     0.040842   
H744     H      0.969230000000     0.685570000000     0.850970000000     0.046855   
H745     H      0.482640000000     0.910740000000     0.884580000000     0.0486976  
H746     H      0.484860000000     0.948130000000     0.852760000000     0.0425651  
H747     H      0.019860000000     0.894730000000     0.792830000000     0.0416137  
H748     H      0.017230000000     0.857010000000     0.825100000000     0.0478459  
H749     H      0.978560000000     0.829810000000     0.855150000000     0.047667   
H750     H      0.976860000000     0.796510000000     0.892060000000     0.0409037  
H751     H      0.522770000000     0.851470000000     0.942570000000     0.0439997  
H752     H      0.524000000000     0.884270000000     0.906140000000     0.0486603  
H753     H      0.546880000000     0.864310000000     0.669630000000     0.047652   
H754     H      0.546290000000     0.900580000000     0.703360000000     0.0398453  
H755     H      0.965020000000     0.922030000000     0.678820000000     0.0376223  
H756     H      0.965240000000     0.885480000000     0.645870000000     0.0466648  
H757     H      0.028650000000     0.821170000000     0.652260000000     0.0472036  
H758     H      0.032220000000     0.791620000000     0.612660000000     0.0410568  
H759     H      0.491530000000     0.852360000000     0.564450000000     0.0427368  
H760     H      0.488560000000     0.881710000000     0.603470000000     0.0482415  
H761     H      0.506720000000     0.643730000000     0.673060000000     0.0476027  
H762     H      0.499070000000     0.608290000000     0.706680000000     0.0367896  
H763     H      0.975370000000     0.552920000000     0.643510000000     0.0384433  
H764     H      0.980990000000     0.588510000000     0.610110000000     0.04783    
H765     H      0.514830000000     0.611020000000     0.587590000000     0.0476971  
H766     H      0.521590000000     0.644410000000     0.552250000000     0.0387361  
H767     H      0.997700000000     0.708140000000     0.606990000000     0.0373042  
H768     H      0.988970000000     0.674530000000     0.642170000000     0.0471713  
O1       O      0.493400000000     0.032200000000     0.189640000000    -0.351654   
O2       O      0.038580000000     0.509140000000     0.307880000000    -0.353268   
O3       O      0.473740000000     0.064300000000     0.275400000000    -0.345967   
O4       O      0.058100000000     0.478270000000     0.223960000000    -0.347811   
O5       O      0.002970000000     0.045690000000     0.304430000000    -0.356037   
O6       O      0.032880000000     0.999680000000     0.193240000000    -0.356221   
O7       O      0.060030000000     0.481320000000     0.279480000000    -0.349905   
O8       O      0.476290000000     0.060000000000     0.220890000000    -0.349843   
O9       O      0.493670000000     0.459970000000     0.200750000000    -0.359786   
O10      O      0.464480000000     0.503760000000     0.308620000000    -0.358098   
O11      O      0.437930000000     0.022240000000     0.225490000000    -0.347968   
O12      O      0.019640000000     0.445480000000     0.280040000000    -0.356229   
O13      O      0.997470000000     0.471130000000     0.309850000000    -0.358741   
O14      O      0.459360000000     0.992470000000     0.199210000000    -0.361114   
O15      O      0.023530000000     0.441710000000     0.229260000000    -0.346891   
O16      O      0.439560000000     0.023630000000     0.276640000000    -0.354891   
O17      O      0.007110000000     0.011190000000     0.250610000000    -0.587278   
O18      O      0.006740000000     0.190940000000     0.030990000000    -0.351636   
O19      O      0.466750000000     0.310340000000     0.504900000000    -0.352019   
O20      O      0.024970000000     0.278610000000     0.062700000000    -0.349427   
O21      O      0.444330000000     0.225560000000     0.475610000000    -0.347727   
O22      O      0.504800000000     0.311140000000     0.038700000000    -0.354395   
O23      O      0.468680000000     0.195270000000     0.998610000000    -0.355247   
O24      O      0.443710000000     0.281720000000     0.478580000000    -0.350661   
O25      O      0.021430000000     0.222400000000     0.059890000000    -0.353133   
O26      O      0.007480000000     0.200150000000     0.459670000000    -0.360469   
O27      O      0.042410000000     0.304850000000     0.497330000000    -0.360963   
O28      O      0.062440000000     0.226510000000     0.024230000000    -0.347004   
O29      O      0.482180000000     0.281430000000     0.442060000000    -0.353059   
O30      O      0.507070000000     0.310360000000     0.466240000000    -0.360262   
O31      O      0.042820000000     0.201650000000     0.992140000000    -0.365646   
O32      O      0.480300000000     0.229970000000     0.439410000000    -0.348806   
O33      O      0.062510000000     0.276100000000     0.025820000000    -0.350519   
O34      O      0.494790000000     0.252680000000     0.008730000000    -0.587303   
O35      O      0.303300000000     0.460710000000     0.993760000000    -0.361502   
O36      O      0.198850000000     0.995670000000     0.459470000000    -0.363792   
O37      O      0.226160000000     0.440660000000     0.021730000000    -0.350017   
O38      O      0.275290000000     0.025150000000     0.440220000000    -0.348527   
O39      O      0.197520000000     0.461640000000     0.493830000000    -0.358683   
O40      O      0.302300000000     0.494340000000     0.459340000000    -0.358868   
O41      O      0.225620000000     0.026900000000     0.440760000000    -0.350694   
O42      O      0.276590000000     0.441370000000     0.024630000000    -0.349934   
O43      O      0.311880000000     0.033420000000     0.995590000000    -0.351373   
O44      O      0.189950000000     0.996920000000     0.032200000000    -0.351533   
O45      O      0.277470000000     0.481660000000     0.059850000000    -0.353197   
O46      O      0.224370000000     0.062150000000     0.482180000000    -0.354718   
O47      O      0.191870000000     0.035600000000     0.498950000000    -0.352827   
O48      O      0.309770000000     0.499430000000     0.033730000000    -0.351696   
O49      O      0.280560000000     0.060540000000     0.477500000000    -0.352184   
O50      O      0.221090000000     0.477420000000     0.058500000000    -0.351092   
O51      O      0.250860000000     0.508770000000     0.507650000000    -0.588899   
O52      O      0.493390000000     0.032200000000     0.689640000000    -0.351724   
O53      O      0.038580000000     0.509140000000     0.807880000000    -0.353337   
O54      O      0.473740000000     0.064300000000     0.775400000000    -0.345966   
O55      O      0.058100000000     0.478270000000     0.723960000000    -0.347748   
O56      O      0.002970000000     0.045690000000     0.804440000000    -0.355903   
O57      O      0.032880000000     0.999680000000     0.693250000000    -0.356347   
O58      O      0.060030000000     0.481320000000     0.779480000000    -0.349914   
O59      O      0.476290000000     0.060000000000     0.720890000000    -0.349868   
O60      O      0.493670000000     0.459970000000     0.700750000000    -0.359788   
O61      O      0.464480000000     0.503760000000     0.808620000000    -0.358097   
O62      O      0.437930000000     0.022240000000     0.725490000000    -0.347962   
O63      O      0.019640000000     0.445480000000     0.780040000000    -0.356355   
O64      O      0.997470000000     0.471130000000     0.809850000000    -0.3588     
O65      O      0.459360000000     0.992470000000     0.699210000000    -0.361105   
O66      O      0.023530000000     0.441710000000     0.729260000000    -0.346811   
O67      O      0.439560000000     0.023630000000     0.776640000000    -0.354889   
O68      O      0.007110000000     0.011190000000     0.750610000000    -0.587273   
O69      O      0.006740000000     0.190940000000     0.530980000000    -0.351963   
O70      O      0.466740000000     0.310340000000     0.004900000000    -0.351801   
O71      O      0.024970000000     0.278610000000     0.562700000000    -0.349383   
O72      O      0.444330000000     0.225570000000     0.975610000000    -0.347695   
O73      O      0.504810000000     0.311140000000     0.538700000000    -0.354431   
O74      O      0.468690000000     0.195260000000     0.498610000000    -0.355151   
O75      O      0.443710000000     0.281720000000     0.978580000000    -0.350694   
O76      O      0.021420000000     0.222400000000     0.559890000000    -0.353176   
O77      O      0.007480000000     0.200150000000     0.959670000000    -0.360419   
O78      O      0.042410000000     0.304850000000     0.997330000000    -0.361476   
O79      O      0.062440000000     0.226510000000     0.524230000000    -0.347082   
O80      O      0.482180000000     0.281430000000     0.942060000000    -0.353014   
O81      O      0.507070000000     0.310360000000     0.966250000000    -0.360358   
O82      O      0.042830000000     0.201660000000     0.492140000000    -0.365643   
O83      O      0.480300000000     0.229970000000     0.939410000000    -0.348866   
O84      O      0.062510000000     0.276100000000     0.525820000000    -0.350431   
O85      O      0.494790000000     0.252680000000     0.508730000000    -0.587529   
O86      O      0.303300000000     0.460700000000     0.493770000000    -0.361239   
O87      O      0.198850000000     0.995670000000     0.959470000000    -0.363881   
O88      O      0.226160000000     0.440660000000     0.521730000000    -0.349955   
O89      O      0.275290000000     0.025150000000     0.940220000000    -0.348585   
O90      O      0.197520000000     0.461640000000     0.993830000000    -0.358825   
O91      O      0.302300000000     0.494350000000     0.959340000000    -0.35888    
O92      O      0.225610000000     0.026900000000     0.940750000000    -0.350652   
O93      O      0.276590000000     0.441370000000     0.524630000000    -0.349846   
O94      O      0.311880000000     0.033420000000     0.495590000000    -0.351386   
O95      O      0.189950000000     0.996920000000     0.532200000000    -0.351885   
O96      O      0.277470000000     0.481660000000     0.559850000000    -0.353213   
O97      O      0.224370000000     0.062150000000     0.982180000000    -0.354712   
O98      O      0.191870000000     0.035600000000     0.998950000000    -0.352863   
O99      O      0.309770000000     0.499430000000     0.533730000000    -0.35191    
O100     O      0.280560000000     0.060550000000     0.977500000000    -0.352174   
O101     O      0.221090000000     0.477420000000     0.558500000000    -0.351084   
O102     O      0.250860000000     0.508770000000     0.007650000000    -0.588468   
O103     O      0.493390000000     0.532200000000     0.189640000000    -0.352172   
O104     O      0.038590000000     0.009140000000     0.307880000000    -0.352745   
O105     O      0.473740000000     0.564300000000     0.275400000000    -0.34594    
O106     O      0.058100000000     0.978270000000     0.223970000000    -0.347859   
O107     O      0.002970000000     0.545690000000     0.304430000000    -0.355925   
O108     O      0.032880000000     0.499670000000     0.193240000000    -0.35611    
O109     O      0.060030000000     0.981320000000     0.279480000000    -0.349884   
O110     O      0.476290000000     0.560000000000     0.220890000000    -0.34994    
O111     O      0.493680000000     0.959970000000     0.200740000000    -0.359784   
O112     O      0.464480000000     0.003770000000     0.308620000000    -0.358024   
O113     O      0.437930000000     0.522240000000     0.225500000000    -0.347951   
O114     O      0.019640000000     0.945480000000     0.280040000000    -0.356281   
O115     O      0.997470000000     0.971130000000     0.309850000000    -0.359228   
O116     O      0.459350000000     0.492470000000     0.199210000000    -0.360755   
O117     O      0.023530000000     0.941710000000     0.229260000000    -0.346877   
O118     O      0.439560000000     0.523630000000     0.276630000000    -0.354761   
O119     O      0.007100000000     0.511190000000     0.250600000000    -0.587774   
O120     O      0.006740000000     0.690940000000     0.030990000000    -0.351788   
O121     O      0.466750000000     0.810340000000     0.504900000000    -0.352022   
O122     O      0.024970000000     0.778620000000     0.062700000000    -0.349564   
O123     O      0.444330000000     0.725560000000     0.475610000000    -0.347709   
O124     O      0.504810000000     0.811140000000     0.038700000000    -0.354466   
O125     O      0.468680000000     0.695270000000     0.998610000000    -0.355293   
O126     O      0.443710000000     0.781720000000     0.478580000000    -0.350663   
O127     O      0.021430000000     0.722400000000     0.059890000000    -0.353149   
O128     O      0.007480000000     0.700150000000     0.459670000000    -0.360474   
O129     O      0.042410000000     0.804850000000     0.497330000000    -0.36096    
O130     O      0.062440000000     0.726510000000     0.024230000000    -0.346997   
O131     O      0.482180000000     0.781430000000     0.442060000000    -0.35307    
O132     O      0.507070000000     0.810360000000     0.466240000000    -0.360276   
O133     O      0.042820000000     0.701650000000     0.992140000000    -0.365646   
O134     O      0.480300000000     0.729970000000     0.439410000000    -0.348828   
O135     O      0.062510000000     0.776100000000     0.025820000000    -0.350495   
O136     O      0.494790000000     0.752680000000     0.008730000000    -0.5873     
O137     O      0.303300000000     0.960700000000     0.993760000000    -0.36145    
O138     O      0.198850000000     0.495670000000     0.459460000000    -0.363421   
O139     O      0.226170000000     0.940660000000     0.021740000000    -0.349802   
O140     O      0.275290000000     0.525150000000     0.440220000000    -0.348542   
O141     O      0.197520000000     0.961640000000     0.493840000000    -0.358605   
O142     O      0.302300000000     0.994340000000     0.459340000000    -0.359389   
O143     O      0.225620000000     0.526900000000     0.440750000000    -0.350596   
O144     O      0.276590000000     0.941370000000     0.024630000000    -0.349853   
O145     O      0.311880000000     0.533420000000     0.995590000000    -0.351806   
O146     O      0.189950000000     0.496920000000     0.032190000000    -0.351433   
O147     O      0.277470000000     0.981660000000     0.059850000000    -0.353247   
O148     O      0.224370000000     0.562150000000     0.482180000000    -0.354738   
O149     O      0.191870000000     0.535600000000     0.498950000000    -0.353242   
O150     O      0.309770000000     0.999430000000     0.033730000000    -0.351806   
O151     O      0.280560000000     0.560540000000     0.477500000000    -0.352187   
O152     O      0.221100000000     0.977430000000     0.058500000000    -0.351116   
O153     O      0.250860000000     0.008770000000     0.507650000000    -0.588232   
O154     O      0.493390000000     0.532200000000     0.689640000000    -0.352168   
O155     O      0.038590000000     0.009140000000     0.807880000000    -0.352738   
O156     O      0.473740000000     0.564300000000     0.775400000000    -0.345938   
O157     O      0.058100000000     0.978270000000     0.723970000000    -0.347885   
O158     O      0.002970000000     0.545690000000     0.804440000000    -0.355871   
O159     O      0.032870000000     0.499670000000     0.693240000000    -0.356023   
O160     O      0.060030000000     0.981320000000     0.779480000000    -0.349877   
O161     O      0.476290000000     0.560000000000     0.720890000000    -0.349929   
O162     O      0.493680000000     0.959970000000     0.700750000000    -0.359906   
O163     O      0.464480000000     0.003770000000     0.808620000000    -0.358026   
O164     O      0.437930000000     0.522240000000     0.725490000000    -0.348022   
O165     O      0.019640000000     0.945480000000     0.780040000000    -0.35633    
O166     O      0.997470000000     0.971130000000     0.809850000000    -0.35924    
O167     O      0.459350000000     0.492470000000     0.699210000000    -0.360787   
O168     O      0.023530000000     0.941710000000     0.729260000000    -0.346877   
O169     O      0.439560000000     0.523630000000     0.776640000000    -0.354854   
O170     O      0.007100000000     0.511190000000     0.750600000000    -0.587707   
O171     O      0.006740000000     0.690940000000     0.530980000000    -0.351967   
O172     O      0.466740000000     0.810340000000     0.004900000000    -0.351817   
O173     O      0.024970000000     0.778610000000     0.562700000000    -0.349317   
O174     O      0.444330000000     0.725560000000     0.975610000000    -0.347771   
O175     O      0.504810000000     0.811140000000     0.538700000000    -0.354429   
O176     O      0.468690000000     0.695260000000     0.498610000000    -0.355049   
O177     O      0.443710000000     0.781720000000     0.978580000000    -0.350696   
O178     O      0.021420000000     0.722400000000     0.559890000000    -0.353173   
O179     O      0.007480000000     0.700150000000     0.959670000000    -0.360418   
O180     O      0.042410000000     0.804850000000     0.997330000000    -0.361416   
O181     O      0.062440000000     0.726510000000     0.524230000000    -0.34708    
O182     O      0.482180000000     0.781430000000     0.942060000000    -0.353019   
O183     O      0.507070000000     0.810360000000     0.966250000000    -0.360365   
O184     O      0.042830000000     0.701660000000     0.492140000000    -0.365645   
O185     O      0.480300000000     0.729960000000     0.939410000000    -0.348959   
O186     O      0.062510000000     0.776100000000     0.525820000000    -0.350422   
O187     O      0.494790000000     0.752680000000     0.508730000000    -0.587493   
O188     O      0.303300000000     0.960700000000     0.493770000000    -0.361287   
O189     O      0.198850000000     0.495670000000     0.959460000000    -0.363389   
O190     O      0.226170000000     0.940660000000     0.521740000000    -0.349768   
O191     O      0.275290000000     0.525150000000     0.940220000000    -0.348641   
O192     O      0.197520000000     0.961640000000     0.993840000000    -0.358892   
O193     O      0.302300000000     0.994340000000     0.959340000000    -0.359283   
O194     O      0.225620000000     0.526900000000     0.940750000000    -0.350561   
O195     O      0.276590000000     0.941370000000     0.524630000000    -0.349854   
O196     O      0.311880000000     0.533420000000     0.495590000000    -0.351798   
O197     O      0.189950000000     0.496920000000     0.532190000000    -0.351654   
O198     O      0.277470000000     0.981660000000     0.559850000000    -0.353381   
O199     O      0.224370000000     0.562150000000     0.982180000000    -0.354737   
O200     O      0.191870000000     0.535600000000     0.998950000000    -0.353276   
O201     O      0.309770000000     0.999420000000     0.533730000000    -0.352108   
O202     O      0.280560000000     0.560550000000     0.977500000000    -0.352197   
O203     O      0.221100000000     0.977430000000     0.558500000000    -0.35125    
O204     O      0.250860000000     0.008770000000     0.007650000000    -0.587825   
O205     O      0.993390000000     0.032210000000     0.189640000000    -0.351614   
O206     O      0.538580000000     0.509140000000     0.307880000000    -0.353143   
O207     O      0.973740000000     0.064300000000     0.275400000000    -0.346018   
O208     O      0.558100000000     0.478270000000     0.223960000000    -0.347796   
O209     O      0.502970000000     0.045690000000     0.304430000000    -0.355634   
O210     O      0.532880000000     0.999670000000     0.193240000000    -0.355972   
O211     O      0.560030000000     0.481320000000     0.279480000000    -0.349875   
O212     O      0.976290000000     0.060000000000     0.220890000000    -0.349941   
O213     O      0.993670000000     0.459980000000     0.200740000000    -0.359224   
O214     O      0.964480000000     0.503760000000     0.308620000000    -0.357801   
O215     O      0.937930000000     0.022240000000     0.225490000000    -0.347955   
O216     O      0.519650000000     0.445480000000     0.280040000000    -0.356206   
O217     O      0.497470000000     0.471130000000     0.309850000000    -0.359303   
O218     O      0.959360000000     0.992480000000     0.199200000000    -0.361145   
O219     O      0.523530000000     0.441710000000     0.229260000000    -0.346893   
O220     O      0.939560000000     0.023630000000     0.276640000000    -0.354807   
O221     O      0.507110000000     0.011190000000     0.250610000000    -0.586906   
O222     O      0.506740000000     0.190940000000     0.030990000000    -0.351672   
O223     O      0.966750000000     0.310340000000     0.504900000000    -0.351714   
O224     O      0.524970000000     0.278610000000     0.062700000000    -0.349287   
O225     O      0.944330000000     0.225560000000     0.475610000000    -0.347695   
O226     O      0.004810000000     0.311140000000     0.038700000000    -0.354827   
O227     O      0.968680000000     0.195260000000     0.998610000000    -0.354936   
O228     O      0.943710000000     0.281720000000     0.478580000000    -0.350647   
O229     O      0.521430000000     0.222400000000     0.059890000000    -0.353164   
O230     O      0.507480000000     0.200150000000     0.459670000000    -0.360088   
O231     O      0.542410000000     0.304850000000     0.497330000000    -0.361003   
O232     O      0.562440000000     0.226510000000     0.024230000000    -0.347077   
O233     O      0.982180000000     0.281430000000     0.442060000000    -0.353019   
O234     O      0.007070000000     0.310360000000     0.466240000000    -0.360654   
O235     O      0.542820000000     0.201650000000     0.992140000000    -0.365854   
O236     O      0.980300000000     0.229970000000     0.439410000000    -0.348872   
O237     O      0.562510000000     0.276100000000     0.025820000000    -0.350554   
O238     O      0.994790000000     0.252680000000     0.008730000000    -0.586739   
O239     O      0.803300000000     0.460700000000     0.993760000000    -0.361536   
O240     O      0.698850000000     0.995670000000     0.459470000000    -0.363888   
O241     O      0.726170000000     0.440660000000     0.021730000000    -0.349926   
O242     O      0.775290000000     0.025150000000     0.440220000000    -0.348525   
O243     O      0.697520000000     0.461640000000     0.493830000000    -0.358524   
O244     O      0.802300000000     0.494340000000     0.459340000000    -0.358857   
O245     O      0.725620000000     0.026900000000     0.440760000000    -0.350707   
O246     O      0.776590000000     0.441370000000     0.024630000000    -0.349976   
O247     O      0.811880000000     0.033420000000     0.995590000000    -0.351405   
O248     O      0.689950000000     0.996920000000     0.032200000000    -0.351524   
O249     O      0.777470000000     0.481660000000     0.059850000000    -0.353207   
O250     O      0.724370000000     0.062150000000     0.482180000000    -0.354718   
O251     O      0.691870000000     0.035600000000     0.498950000000    -0.352822   
O252     O      0.809770000000     0.499430000000     0.033730000000    -0.351692   
O253     O      0.780560000000     0.060540000000     0.477500000000    -0.352178   
O254     O      0.721090000000     0.477420000000     0.058500000000    -0.351099   
O255     O      0.750860000000     0.508770000000     0.507650000000    -0.58883    
O256     O      0.993390000000     0.032210000000     0.689640000000    -0.351632   
O257     O      0.538580000000     0.509140000000     0.807880000000    -0.353218   
O258     O      0.973740000000     0.064300000000     0.775400000000    -0.345973   
O259     O      0.558100000000     0.478270000000     0.723960000000    -0.347829   
O260     O      0.502970000000     0.045690000000     0.804430000000    -0.355639   
O261     O      0.532880000000     0.999670000000     0.693240000000    -0.355997   
O262     O      0.560030000000     0.481320000000     0.779480000000    -0.349891   
O263     O      0.976290000000     0.060000000000     0.720890000000    -0.349945   
O264     O      0.993670000000     0.459980000000     0.700740000000    -0.359273   
O265     O      0.964480000000     0.503760000000     0.808620000000    -0.357868   
O266     O      0.937930000000     0.022240000000     0.725490000000    -0.347916   
O267     O      0.519640000000     0.445480000000     0.780040000000    -0.356433   
O268     O      0.497470000000     0.471130000000     0.809850000000    -0.359428   
O269     O      0.959360000000     0.992470000000     0.699200000000    -0.361037   
O270     O      0.523530000000     0.441710000000     0.729260000000    -0.34689    
O271     O      0.939560000000     0.023630000000     0.776640000000    -0.354783   
O272     O      0.507110000000     0.011190000000     0.750610000000    -0.586915   
O273     O      0.506740000000     0.190940000000     0.530990000000    -0.352048   
O274     O      0.966740000000     0.310340000000     0.004900000000    -0.351589   
O275     O      0.524970000000     0.278610000000     0.562700000000    -0.34927    
O276     O      0.944330000000     0.225570000000     0.975610000000    -0.347672   
O277     O      0.004810000000     0.311140000000     0.538700000000    -0.354733   
O278     O      0.968690000000     0.195260000000     0.498610000000    -0.354734   
O279     O      0.943710000000     0.281720000000     0.978580000000    -0.350696   
O280     O      0.521420000000     0.222400000000     0.559890000000    -0.35325    
O281     O      0.507470000000     0.200140000000     0.959670000000    -0.359985   
O282     O      0.542410000000     0.304850000000     0.997330000000    -0.361486   
O283     O      0.562440000000     0.226510000000     0.524230000000    -0.347068   
O284     O      0.982180000000     0.281430000000     0.942060000000    -0.353114   
O285     O      0.007070000000     0.310360000000     0.966240000000    -0.360863   
O286     O      0.542820000000     0.201650000000     0.492150000000    -0.365573   
O287     O      0.980300000000     0.229970000000     0.939410000000    -0.348839   
O288     O      0.562510000000     0.276100000000     0.525820000000    -0.350461   
O289     O      0.994790000000     0.252680000000     0.508730000000    -0.587003   
O290     O      0.803300000000     0.460700000000     0.493770000000    -0.361243   
O291     O      0.698850000000     0.995670000000     0.959470000000    -0.363886   
O292     O      0.726170000000     0.440660000000     0.521730000000    -0.349815   
O293     O      0.775290000000     0.025150000000     0.940220000000    -0.348589   
O294     O      0.697520000000     0.461640000000     0.993830000000    -0.358772   
O295     O      0.802300000000     0.494340000000     0.959340000000    -0.358745   
O296     O      0.725610000000     0.026900000000     0.940750000000    -0.35065    
O297     O      0.776590000000     0.441370000000     0.524630000000    -0.349938   
O298     O      0.811880000000     0.033420000000     0.495590000000    -0.351377   
O299     O      0.689950000000     0.996920000000     0.532200000000    -0.351794   
O300     O      0.777470000000     0.481660000000     0.559850000000    -0.353341   
O301     O      0.724370000000     0.062150000000     0.982180000000    -0.354707   
O302     O      0.691870000000     0.035600000000     0.998950000000    -0.352857   
O303     O      0.809770000000     0.499420000000     0.533730000000    -0.351986   
O304     O      0.780560000000     0.060550000000     0.977500000000    -0.352063   
O305     O      0.721090000000     0.477420000000     0.558500000000    -0.351219   
O306     O      0.750860000000     0.508770000000     0.007650000000    -0.588459   
O307     O      0.993390000000     0.532200000000     0.189640000000    -0.35216    
O308     O      0.538590000000     0.009140000000     0.307880000000    -0.352763   
O309     O      0.973740000000     0.564300000000     0.275400000000    -0.345974   
O310     O      0.558100000000     0.978270000000     0.223970000000    -0.347782   
O311     O      0.502970000000     0.545690000000     0.304430000000    -0.355551   
O312     O      0.532870000000     0.499660000000     0.193240000000    -0.355759   
O313     O      0.560030000000     0.981320000000     0.279480000000    -0.349967   
O314     O      0.976290000000     0.560000000000     0.220890000000    -0.349989   
O315     O      0.993680000000     0.959980000000     0.200740000000    -0.35926    
O316     O      0.964480000000     0.003770000000     0.308620000000    -0.357808   
O317     O      0.937930000000     0.522240000000     0.225500000000    -0.347945   
O318     O      0.519640000000     0.945480000000     0.280040000000    -0.356411   
O319     O      0.497470000000     0.971130000000     0.309850000000    -0.359853   
O320     O      0.959360000000     0.492470000000     0.199210000000    -0.360717   
O321     O      0.523530000000     0.941710000000     0.229260000000    -0.346938   
O322     O      0.939560000000     0.523630000000     0.276640000000    -0.354817   
O323     O      0.507100000000     0.511190000000     0.250600000000    -0.587459   
O324     O      0.506740000000     0.690940000000     0.030990000000    -0.351651   
O325     O      0.966750000000     0.810340000000     0.504900000000    -0.351721   
O326     O      0.524970000000     0.778610000000     0.062700000000    -0.34931    
O327     O      0.944330000000     0.725560000000     0.475610000000    -0.347694   
O328     O      0.004810000000     0.811140000000     0.038700000000    -0.354775   
O329     O      0.968680000000     0.695260000000     0.998610000000    -0.355002   
O330     O      0.943710000000     0.781720000000     0.478580000000    -0.350649   
O331     O      0.521430000000     0.722400000000     0.059890000000    -0.3532     
O332     O      0.507480000000     0.700150000000     0.459670000000    -0.360116   
O333     O      0.542410000000     0.804850000000     0.497330000000    -0.36101    
O334     O      0.562440000000     0.726510000000     0.024230000000    -0.34709    
O335     O      0.982180000000     0.781430000000     0.442060000000    -0.353092   
O336     O      0.007070000000     0.810360000000     0.466240000000    -0.360635   
O337     O      0.542820000000     0.701650000000     0.992140000000    -0.365872   
O338     O      0.980300000000     0.729970000000     0.439410000000    -0.348868   
O339     O      0.562510000000     0.776100000000     0.025820000000    -0.350545   
O340     O      0.994790000000     0.752680000000     0.008730000000    -0.586797   
O341     O      0.803300000000     0.960700000000     0.993770000000    -0.36156    
O342     O      0.698850000000     0.495670000000     0.459460000000    -0.363422   
O343     O      0.726170000000     0.940660000000     0.021740000000    -0.349651   
O344     O      0.775290000000     0.525150000000     0.440220000000    -0.348534   
O345     O      0.697520000000     0.961640000000     0.493840000000    -0.358628   
O346     O      0.802300000000     0.994340000000     0.459340000000    -0.359386   
O347     O      0.725620000000     0.526900000000     0.440750000000    -0.350591   
O348     O      0.776590000000     0.941370000000     0.024630000000    -0.3499     
O349     O      0.811880000000     0.533420000000     0.995590000000    -0.351797   
O350     O      0.689950000000     0.496920000000     0.032190000000    -0.351427   
O351     O      0.777470000000     0.981660000000     0.059850000000    -0.353372   
O352     O      0.724370000000     0.562150000000     0.482180000000    -0.35474    
O353     O      0.691870000000     0.535600000000     0.498950000000    -0.353243   
O354     O      0.809770000000     0.999420000000     0.033730000000    -0.35187    
O355     O      0.780560000000     0.560540000000     0.477500000000    -0.35221    
O356     O      0.721100000000     0.977420000000     0.058500000000    -0.351148   
O357     O      0.750860000000     0.008770000000     0.507650000000    -0.588207   
O358     O      0.993390000000     0.532200000000     0.689640000000    -0.35216    
O359     O      0.538590000000     0.009140000000     0.807880000000    -0.352766   
O360     O      0.973740000000     0.564300000000     0.775400000000    -0.345952   
O361     O      0.558100000000     0.978270000000     0.723970000000    -0.347784   
O362     O      0.502970000000     0.545690000000     0.804430000000    -0.355615   
O363     O      0.532870000000     0.499660000000     0.693240000000    -0.3559     
O364     O      0.560030000000     0.981320000000     0.779480000000    -0.349967   
O365     O      0.976290000000     0.560000000000     0.720890000000    -0.349986   
O366     O      0.993680000000     0.959980000000     0.700740000000    -0.359253   
O367     O      0.964480000000     0.003770000000     0.808620000000    -0.357788   
O368     O      0.937930000000     0.522240000000     0.725490000000    -0.348096   
O369     O      0.519640000000     0.945480000000     0.780040000000    -0.356418   
O370     O      0.497470000000     0.971130000000     0.809850000000    -0.359866   
O371     O      0.959350000000     0.492470000000     0.699210000000    -0.360842   
O372     O      0.523530000000     0.941710000000     0.729260000000    -0.346968   
O373     O      0.939560000000     0.523630000000     0.776640000000    -0.354833   
O374     O      0.507100000000     0.511190000000     0.750600000000    -0.58739    
O375     O      0.506740000000     0.690940000000     0.530990000000    -0.352053   
O376     O      0.966740000000     0.810340000000     0.004900000000    -0.351516   
O377     O      0.524970000000     0.778610000000     0.562700000000    -0.349265   
O378     O      0.944330000000     0.725560000000     0.975610000000    -0.347766   
O379     O      0.004810000000     0.811140000000     0.538690000000    -0.354657   
O380     O      0.968690000000     0.695260000000     0.498610000000    -0.354739   
O381     O      0.943710000000     0.781720000000     0.978580000000    -0.350684   
O382     O      0.521420000000     0.722400000000     0.559890000000    -0.353117   
O383     O      0.507470000000     0.700140000000     0.959670000000    -0.36005    
O384     O      0.542410000000     0.804850000000     0.997330000000    -0.361477   
O385     O      0.562440000000     0.726510000000     0.524230000000    -0.347133   
O386     O      0.982180000000     0.781430000000     0.942060000000    -0.353099   
O387     O      0.007070000000     0.810360000000     0.966240000000    -0.360797   
O388     O      0.542830000000     0.701650000000     0.492150000000    -0.365721   
O389     O      0.980300000000     0.729970000000     0.939410000000    -0.348823   
O390     O      0.562510000000     0.776100000000     0.525820000000    -0.350458   
O391     O      0.994790000000     0.752680000000     0.508730000000    -0.587006   
O392     O      0.803300000000     0.960700000000     0.493770000000    -0.361283   
O393     O      0.698850000000     0.495670000000     0.959460000000    -0.363389   
O394     O      0.726170000000     0.940660000000     0.521740000000    -0.349667   
O395     O      0.775290000000     0.525150000000     0.940220000000    -0.348589   
O396     O      0.697520000000     0.961640000000     0.993840000000    -0.358776   
O397     O      0.802300000000     0.994340000000     0.959340000000    -0.359299   
O398     O      0.725620000000     0.526900000000     0.940750000000    -0.350561   
O399     O      0.776590000000     0.941370000000     0.524630000000    -0.349861   
O400     O      0.811880000000     0.533420000000     0.495590000000    -0.351945   
O401     O      0.689950000000     0.496920000000     0.532190000000    -0.351687   
O402     O      0.777470000000     0.981660000000     0.559850000000    -0.353382   
O403     O      0.724370000000     0.562150000000     0.982180000000    -0.354673   
O404     O      0.691870000000     0.535590000000     0.998950000000    -0.353187   
O405     O      0.809770000000     0.999420000000     0.533730000000    -0.3521     
O406     O      0.780560000000     0.560550000000     0.977500000000    -0.352063   
O407     O      0.721100000000     0.977430000000     0.558500000000    -0.351238   
O408     O      0.750860000000     0.008770000000     0.007650000000    -0.587815   


