data_structure

_audit_creation_method RASPA-1.0
_audit_creation_date 2023-6-4
_audit_author_name 'Poobodin Mano'

_cell_length_a    22.7341
_cell_length_b    23.5759
_cell_length_c    23.6251
_cell_angle_alpha 87.1395
_cell_angle_beta  93.8148
_cell_angle_gamma 120.432
_cell_volume      10891.9

_symmetry_cell_setting          triclinic
_symmetry_space_group_name_Hall 'P 1'
_symmetry_space_group_name_H-M  'P 1'
_symmetry_Int_Tables_number     1

_symmetry_equiv_pos_as_xyz 'x,y,z'

loop_
_atom_site_label
_atom_site_type_symbol
_atom_site_fract_x
_atom_site_fract_y
_atom_site_fract_z
_atom_site_charge
C1       C      0.070300000000     0.190530000000     0.039090000000     0.465162   
C2       C      0.929810000000     0.942090000000     0.016270000000     0.480098   
C3       C      0.091320000000     0.108010000000     0.920370000000     0.434614   
C4       C      0.964230000000     0.078360000000     0.160800000000     0.41862    
C5       C      0.085160000000     0.027700000000     0.205890000000     0.470423   
C6       C      0.212690000000     0.065550000000     0.993880000000     0.485722   
C7       C      0.206030000000     0.208750000000     0.126880000000     0.435417   
C8       C      0.056880000000     0.903660000000     0.049360000000     0.485084   
C9       C      0.009660000000     0.026970000000     0.404070000000     0.437908   
C10      C      0.118910000000     0.198060000000     0.582670000000     0.467056   
C11      C      0.904030000000     0.035760000000     0.504950000000     0.406652   
C12      C      0.222420000000     0.177750000000     0.514720000000     0.467866   
C13      C      0.190420000000     0.018460000000     0.549540000000     0.472195   
C14      C      0.926450000000     0.939880000000     0.620280000000     0.448483   
C15      C      0.049550000000     0.914750000000     0.476820000000     0.442714   
C16      C      0.058430000000     0.064900000000     0.686820000000     0.463046   
C17      C      0.914830000000     0.406010000000     0.979520000000     0.458998   
C18      C      0.049850000000     0.681110000000     0.029630000000     0.505761   
C19      C      0.934950000000     0.547390000000     0.121420000000     0.41581    
C20      C      0.096510000000     0.557530000000     0.907360000000     0.492991   
C21      C      0.212430000000     0.560920000000     0.033540000000     0.518257   
C22      C      0.065270000000     0.513010000000     0.181850000000     0.444003   
C23      C      0.013890000000     0.383270000000     0.081360000000     0.451645   
C24      C      0.181920000000     0.696840000000     0.137180000000     0.389253   
C25      C      0.914090000000     0.385070000000     0.494840000000     0.489806   
C26      C      0.063070000000     0.693040000000     0.512560000000     0.356498   
C27      C      0.929680000000     0.533160000000     0.576390000000     0.453769   
C28      C      0.103990000000     0.559830000000     0.406590000000     0.437506   
C29      C      0.200620000000     0.546690000000     0.529560000000     0.467923   
C30      C      0.068860000000     0.556630000000     0.676620000000     0.447138   
C31      C      0.052110000000     0.375470000000     0.569130000000     0.519972   
C32      C      0.212800000000     0.707830000000     0.560100000000     0.368224   
C33      C      0.414870000000     0.023920000000     0.036240000000     0.477088   
C34      C      0.568120000000     0.887990000000     0.053300000000     0.370265   
C35      C      0.566250000000     0.077150000000     0.923150000000     0.361516   
C36      C      0.427160000000     0.910150000000     0.124350000000     0.457813   
C37      C      0.572210000000     0.014280000000     0.218270000000     0.477051   
C38      C      0.691920000000     0.167980000000     0.006650000000     0.451561   
C39      C      0.546750000000     0.178030000000     0.093090000000     0.469339   
C40      C      0.704590000000     0.032940000000     0.101060000000     0.477656   
C41      C      0.414050000000     0.025420000000     0.560280000000     0.50627    
C42      C      0.623580000000     0.943020000000     0.514290000000     0.437036   
C43      C      0.530500000000     0.021000000000     0.424930000000     0.492675   
C44      C      0.458850000000     0.900820000000     0.634790000000     0.487144   
C45      C      0.601880000000     0.041380000000     0.717510000000     0.504646   
C46      C      0.681630000000     0.168560000000     0.458370000000     0.384203   
C47      C      0.567650000000     0.169200000000     0.623210000000     0.502105   
C48      C      0.736140000000     0.095620000000     0.582140000000     0.474106   
C49      C      0.425870000000     0.415800000000     0.063800000000     0.449397   
C50      C      0.603770000000     0.701940000000     0.996400000000     0.513931   
C51      C      0.452890000000     0.562800000000     0.112070000000     0.490488   
C52      C      0.600820000000     0.551470000000     0.928660000000     0.45216    
C53      C      0.708360000000     0.538480000000     0.056380000000     0.464949   
C54      C      0.595130000000     0.592150000000     0.219780000000     0.46353    
C55      C      0.580830000000     0.414220000000     0.113200000000     0.472146   
C56      C      0.724270000000     0.719090000000     0.101540000000     0.604415   
C57      C      0.434910000000     0.426070000000     0.543340000000     0.458741   
C58      C      0.610600000000     0.725080000000     0.512160000000     0.483954   
C59      C      0.430400000000     0.549670000000     0.617780000000     0.461334   
C60      C      0.599900000000     0.558450000000     0.444050000000     0.455953   
C61      C      0.714700000000     0.561240000000     0.571650000000     0.477989   
C62      C      0.588810000000     0.596380000000     0.711640000000     0.456617   
C63      C      0.566060000000     0.399290000000     0.600790000000     0.386921   
C64      C      0.711690000000     0.712370000000     0.631400000000     0.4646     
C65      C      0.667820000000     0.609180000000     0.793350000000    -0.00782444 
C66      C      0.563580000000     0.616660000000     0.804490000000    -0.0416197  
C67      C      0.641050000000     0.549940000000     0.834580000000    -0.0112929  
C68      C      0.532630000000     0.552250000000     0.839740000000     0.0842936  
C69      C      0.475470000000     0.545730000000     0.875640000000    -0.193046   
C70      C      0.629970000000     0.548770000000     0.305420000000    -0.0159177  
C71      C      0.579350000000     0.621710000000     0.314490000000    -0.0418858  
C72      C      0.586680000000     0.504230000000     0.354030000000    -0.00874354 
C73      C      0.534510000000     0.573950000000     0.360430000000     0.0850762  
C74      C      0.508030000000     0.605960000000     0.399100000000    -0.193419   
C75      C      0.550300000000     0.840990000000     0.462230000000    -0.00843887 
C76      C      0.676750000000     0.898380000000     0.455910000000    -0.0400094  
C77      C      0.543780000000     0.776820000000     0.484650000000    -0.00521783 
C78      C      0.667910000000     0.828210000000     0.453630000000     0.0764184  
C79      C      0.660500000000     0.806240000000     0.392280000000    -0.187162   
C80      C      0.629160000000     0.344450000000     0.581090000000    -0.0150491  
C81      C      0.566390000000     0.318020000000     0.672080000000    -0.0428342  
C82      C      0.601760000000     0.272190000000     0.573490000000    -0.00306528 
C83      C      0.589250000000     0.265350000000     0.681270000000     0.0792315  
C84      C      0.660880000000     0.295210000000     0.710560000000    -0.186085   
C85      C      0.632020000000     0.146010000000     0.841940000000    -0.0110012  
C86      C      0.643320000000     0.051140000000     0.874440000000    -0.0279159  
C87      C      0.607820000000     0.117640000000     0.782810000000    -0.0113103  
C88      C      0.620720000000     0.018870000000     0.816030000000     0.0719831  
C89      C      0.664040000000     0.988070000000     0.803340000000    -0.181284   
C90      C      0.514360000000     0.946110000000     0.346450000000    -0.00926213 
C91      C      0.541540000000     0.062890000000     0.328260000000    -0.0336018  
C92      C      0.575440000000     0.960500000000     0.310330000000    -0.0118636  
C93      C      0.609700000000     0.077950000000     0.306410000000     0.080899   
C94      C      0.648120000000     0.145260000000     0.275370000000    -0.185035   
C95      C      0.635230000000     0.833410000000     0.053650000000    -0.00935835 
C96      C      0.527470000000     0.792050000000     0.990530000000    -0.042758   
C97      C      0.667520000000     0.818750000000     0.005100000000    -0.00520343 
C98      C      0.561440000000     0.771950000000     0.946350000000     0.0771706  
C99      C      0.508170000000     0.713430000000     0.911280000000    -0.193215   
C100     C      0.569160000000     0.283600000000     0.052160000000    -0.0118374  
C101     C      0.554980000000     0.261430000000     0.158440000000    -0.0379124  
C102     C      0.623930000000     0.353060000000     0.066210000000    -0.00497181 
C103     C      0.607570000000     0.335190000000     0.169220000000     0.0750086  
C104     C      0.593440000000     0.358010000000     0.223960000000    -0.187188   
C105     C      0.790050000000     0.239270000000     0.408090000000    -0.0150385  
C106     C      0.727400000000     0.288010000000     0.448280000000    -0.0376882  
C107     C      0.851400000000     0.310890000000     0.414950000000    -0.0062857  
C108     C      0.787660000000     0.332130000000     0.488980000000     0.0817717  
C109     C      0.791120000000     0.398590000000     0.492290000000    -0.196466   
C110     C      0.321950000000     0.809210000000     0.544330000000    -0.0198859  
C111     C      0.291010000000     0.761880000000     0.643760000000    -0.0431426  
C112     C      0.395090000000     0.825830000000     0.558140000000     0.00062436 
C113     C      0.367530000000     0.785310000000     0.658180000000     0.0768956  
C114     C      0.386450000000     0.803760000000     0.721010000000    -0.192183   
C115     C      0.863500000000     0.583450000000     0.537030000000    -0.0158059  
C116     C      0.821560000000     0.503030000000     0.620980000000    -0.0430397  
C117     C      0.838810000000     0.623790000000     0.564960000000    -0.000397752
C118     C      0.793170000000     0.544130000000     0.643980000000     0.0850159  
C119     C      0.734390000000     0.503330000000     0.683430000000    -0.198214   
C120     C      0.367260000000     0.607420000000     0.608540000000    -0.0111768  
C121     C      0.304310000000     0.483210000000     0.612230000000    -0.0416235  
C122     C      0.294880000000     0.595280000000     0.601180000000    -0.00921207 
C123     C      0.262310000000     0.486230000000     0.558100000000     0.0832376  
C124     C      0.295380000000     0.486510000000     0.503550000000    -0.1915     
C125     C      0.125520000000     0.537010000000     0.762150000000    -0.0125086  
C126     C      0.102400000000     0.629390000000     0.760220000000    -0.0393701  
C127     C      0.086610000000     0.508060000000     0.816010000000    -0.00630645 
C128     C      0.067340000000     0.604270000000     0.817530000000     0.0788063  
C129     C      0.076460000000     0.663200000000     0.850400000000    -0.188824   
C130     C      0.166870000000     0.576800000000     0.319570000000    -0.00847306 
C131     C      0.065710000000     0.468660000000     0.338770000000    -0.0316998  
C132     C      0.134010000000     0.580480000000     0.261990000000    -0.0127772  
C133     C      0.030280000000     0.467410000000     0.280090000000     0.0730165  
C134     C      0.993300000000     0.396140000000     0.258430000000    -0.18294    
C135     C      0.753300000000     0.289780000000     0.011800000000    -0.0118913  
C136     C      0.811320000000     0.233150000000     0.973700000000    -0.0426316  
C137     C      0.788640000000     0.345070000000     0.967310000000    -0.0106249  
C138     C      0.848480000000     0.293030000000     0.932130000000     0.0809542  
C139     C      0.914730000000     0.299970000000     0.912030000000    -0.19102    
C140     C      0.305600000000     0.859640000000     0.149430000000    -0.0130597  
C141     C      0.350590000000     0.789070000000     0.115290000000    -0.0423813  
C142     C      0.254940000000     0.801320000000     0.186840000000    -0.0130283  
C143     C      0.307300000000     0.738560000000     0.160690000000     0.0860943  
C144     C      0.297510000000     0.670270000000     0.154620000000    -0.205486   
C145     C      0.783780000000     0.489430000000     0.057570000000    -0.0151573  
C146     C      0.805490000000     0.576400000000     0.127090000000    -0.0396683  
C147     C      0.814140000000     0.462010000000     0.104230000000     0.000114294
C148     C      0.840580000000     0.549070000000     0.169970000000     0.077171   
C149     C      0.893480000000     0.602090000000     0.210290000000    -0.193926   
C150     C      0.262980000000     0.505820000000     0.093000000000    -0.0117486  
C151     C      0.337760000000     0.611580000000     0.037570000000    -0.0388433  
C152     C      0.330030000000     0.521330000000     0.127270000000    -0.0101474  
C153     C      0.385450000000     0.583370000000     0.036350000000     0.0801417  
C154     C      0.365480000000     0.535750000000     0.987240000000    -0.191121   
C155     C      0.833760000000     0.768180000000     0.662470000000    -0.00960365 
C156     C      0.760540000000     0.814780000000     0.686140000000    -0.0381666  
C157     C      0.890460000000     0.838620000000     0.677910000000    -0.0145846  
C158     C      0.805190000000     0.876420000000     0.649630000000     0.0784375  
C159     C      0.772210000000     0.862150000000     0.588550000000    -0.191277   
C160     C      0.319110000000     0.341460000000     0.565910000000    -0.0128568  
C161     C      0.352980000000     0.352610000000     0.465970000000    -0.0370702  
C162     C      0.304540000000     0.271900000000     0.569210000000    -0.00408912 
C163     C      0.319850000000     0.275590000000     0.465180000000     0.0700665  
C164     C      0.284300000000     0.248680000000     0.407240000000    -0.184768   
C165     C      0.850890000000     0.106700000000     0.492100000000    -0.0216762  
C166     C      0.818960000000     0.024600000000     0.573390000000    -0.0571993  
C167     C      0.845470000000     0.154210000000     0.533100000000    -0.00721849 
C168     C      0.832550000000     0.080130000000     0.612740000000     0.0913497  
C169     C      0.804990000000     0.056390000000     0.672640000000    -0.186612   
C170     C      0.277730000000     0.009870000000     0.502030000000    -0.00855428 
C171     C      0.268860000000     0.997880000000     0.609810000000    -0.0416689  
C172     C      0.308410000000     0.965310000000     0.504930000000    -0.0131103  
C173     C      0.301680000000     0.955570000000     0.608420000000     0.0840336  
C174     C      0.332880000000     0.951780000000     0.667400000000    -0.181543   
C175     C      0.021130000000     0.766430000000     0.531720000000    -0.0167794  
C176     C      0.048570000000     0.758610000000     0.430610000000    -0.0445939  
C177     C      0.983570000000     0.797020000000     0.500170000000    -0.00403404 
C178     C      0.064130000000     0.832180000000     0.421190000000     0.079769   
C179     C      0.141350000000     0.878810000000     0.421750000000    -0.191442   
C180     C      0.082200000000     0.305450000000     0.634700000000    -0.0103422  
C181     C      0.059990000000     0.286050000000     0.529700000000    -0.0380375  
C182     C      0.146810000000     0.298460000000     0.631550000000    -0.0137539  
C183     C      0.129980000000     0.293440000000     0.526820000000     0.0939644  
C184     C      0.138280000000     0.268030000000     0.471040000000    -0.207485   
C185     C      0.144070000000     0.114520000000     0.831350000000    -0.0141766  
C186     C      0.016290000000     0.058870000000     0.837490000000    -0.0375219  
C187     C      0.134770000000     0.120760000000     0.766650000000    -0.00661492 
C188     C      0.008850000000     0.071460000000     0.773900000000     0.0771078  
C189     C      0.938380000000     0.016200000000     0.751930000000    -0.192069   
C190     C      0.986720000000     0.963970000000     0.315240000000    -0.0104131  
C191     C      0.062930000000     0.086560000000     0.316290000000    -0.0503781  
C192     C      0.046500000000     0.958670000000     0.292610000000    -0.0127632  
C193     C      0.122880000000     0.078180000000     0.301240000000     0.0916193  
C194     C      0.183390000000     0.142020000000     0.278160000000    -0.193892   
C195     C      0.837470000000     0.887330000000     0.084730000000    -0.0203618  
C196     C      0.841280000000     0.826440000000     0.001880000000    -0.0373273  
C197     C      0.822780000000     0.828380000000     0.124590000000    -0.00679554 
C198     C      0.832540000000     0.771520000000     0.043650000000     0.0740404  
C199     C      0.811540000000     0.709560000000     0.010710000000    -0.164684   
C200     C      0.265740000000     0.331910000000     0.120130000000    -0.0142519  
C201     C      0.330250000000     0.272670000000     0.126970000000    -0.0467222  
C202     C      0.300430000000     0.364830000000     0.063070000000    -0.0144678  
C203     C      0.351820000000     0.294090000000     0.065980000000     0.0953049  
C204     C      0.412460000000     0.286850000000     0.053280000000    -0.198775   
C205     C      0.873250000000     0.102360000000     0.186560000000    -0.0134226  
C206     C      0.879540000000     0.071660000000     0.089230000000    -0.0449109  
C207     C      0.793570000000     0.061440000000     0.178710000000    -0.0107288  
C208     C      0.804900000000     0.020960000000     0.085150000000     0.0853479  
C209     C      0.784440000000     0.008080000000     0.020980000000    -0.187357   
C210     C      0.326850000000     0.004300000000     0.959680000000    -0.0120819  
C211     C      0.297340000000     0.977880000000     0.062000000000    -0.0365355  
C212     C      0.255340000000     0.998330000000     0.954750000000    -0.0065266  
C213     C      0.271100000000     0.025480000000     0.060940000000     0.0855339  
C214     C      0.216870000000     0.001570000000     0.106280000000    -0.186193   
C215     C      0.042750000000     0.768900000000     0.974500000000    -0.0109066  
C216     C      0.984930000000     0.728430000000     0.065150000000    -0.034627   
C217     C      0.091770000000     0.835410000000     0.001590000000    -0.00906651 
C218     C      0.035080000000     0.793990000000     0.093950000000     0.0788281  
C219     C      0.005580000000     0.805590000000     0.145930000000    -0.192406   
C220     C      0.079190000000     0.354430000000     0.021370000000    -0.0157478  
C221     C      0.972670000000     0.267360000000     0.069000000000    -0.0386146  
C222     C      0.083310000000     0.295090000000     0.002140000000    -0.00872786 
C223     C      0.017540000000     0.240170000000     0.091290000000     0.0832709  
C224     C      0.062550000000     0.277920000000     0.143670000000    -0.185832   
Co1      Co     0.066140000000     0.107500000000     0.120720000000     1.06024    
Co2      Co     0.067920000000     0.005060000000     0.982790000000     1.1081     
Co3      Co     0.173920000000     0.148880000000     0.029890000000     1.07581    
Co4      Co     0.003800000000     0.983530000000     0.106810000000     1.0024     
Co5      Co     0.117420000000     0.061040000000     0.468640000000     1.06412    
Co6      Co     0.003110000000     0.081990000000     0.576720000000     1.07503    
Co7      Co     0.973580000000     0.956560000000     0.518170000000     1.03231    
Co8      Co     0.145190000000     0.087940000000     0.604760000000     1.07583    
Co9      Co     0.069770000000     0.470180000000     0.008470000000     1.17284    
Co10     Co     0.078780000000     0.604690000000     0.110300000000     1.08407    
Co11     Co     0.959250000000     0.466260000000     0.079730000000     1.02928    
Co12     Co     0.141040000000     0.636070000000     0.010530000000     0.985131   
Co13     Co     0.058280000000     0.465290000000     0.478990000000     1.20696    
Co14     Co     0.066920000000     0.607620000000     0.562850000000     0.809557   
Co15     Co     0.992770000000     0.452300000000     0.602930000000     1.11576    
Co16     Co     0.129970000000     0.616360000000     0.513500000000     0.800162   
Co17     Co     0.503330000000     0.053420000000     0.139180000000     1.18809    
Co18     Co     0.612780000000     0.022700000000     0.010500000000     0.806848   
Co19     Co     0.552910000000     0.091860000000     0.015110000000     1.13483    
Co20     Co     0.569320000000     0.972930000000     0.106910000000     1.07862    
Co21     Co     0.502570000000     0.036110000000     0.643760000000     1.13568    
Co22     Co     0.629350000000     0.066470000000     0.509080000000     0.939087   
Co23     Co     0.545900000000     0.100080000000     0.512860000000     1.02467    
Co24     Co     0.607090000000     0.981770000000     0.618230000000     1.10124    
Co25     Co     0.556240000000     0.481530000000     0.020870000000     0.985654   
Co26     Co     0.587880000000     0.652980000000     0.115720000000     1.20564    
Co27     Co     0.536290000000     0.497280000000     0.145900000000     1.01455    
Co28     Co     0.668300000000     0.623230000000     0.020350000000     1.32049    
Co29     Co     0.571130000000     0.494120000000     0.554650000000     1.01557    
Co30     Co     0.559940000000     0.644860000000     0.603930000000     1.15579    
Co31     Co     0.519900000000     0.493770000000     0.639690000000     0.885582   
Co32     Co     0.671950000000     0.644940000000     0.530970000000     1.10163    
H1       H      0.495540000000     0.585590000000     0.906870000000     0.0843096  
H2       H      0.592470000000     0.659410000000     0.832920000000     0.0468147  
H3       H      0.701910000000     0.654660000000     0.817510000000     0.036383   
H4       H      0.684900000000     0.551300000000     0.859660000000     0.0401759  
H5       H      0.522790000000     0.622400000000     0.780890000000     0.0463823  
H6       H      0.435830000000     0.548930000000     0.847830000000     0.0616945  
H7       H      0.507350000000     0.510590000000     0.809710000000     0.0174252  
H8       H      0.699160000000     0.605120000000     0.761340000000     0.0349383  
H9       H      0.616360000000     0.504000000000     0.809730000000     0.0384765  
H10      H      0.449900000000     0.496890000000     0.897520000000     0.0837633  
H11      H      0.549620000000     0.654650000000     0.413570000000     0.0874686  
H12      H      0.626080000000     0.663300000000     0.334360000000     0.0465627  
H13      H      0.682100000000     0.584040000000     0.322830000000     0.0397157  
H14      H      0.614960000000     0.482910000000     0.378060000000     0.04161    
H15      H      0.550380000000     0.642170000000     0.290280000000     0.0484255  
H16      H      0.469090000000     0.614030000000     0.375110000000     0.0647175  
H17      H      0.487950000000     0.534190000000     0.338310000000     0.0160103  
H18      H      0.635130000000     0.517070000000     0.275200000000     0.0403901  
H19      H      0.538340000000     0.462680000000     0.336030000000     0.0319501  
H20      H      0.483470000000     0.573380000000     0.436220000000     0.0906923  
H21      H      0.612860000000     0.800410000000     0.370770000000     0.0681474  
H22      H      0.684710000000     0.922580000000     0.413230000000     0.0448623  
H23      H      0.545140000000     0.839680000000     0.415150000000     0.031388   
H24      H      0.504600000000     0.735820000000     0.457990000000     0.0345214  
H25      H      0.723540000000     0.929750000000     0.482430000000     0.042948   
H26      H      0.704890000000     0.842830000000     0.368090000000     0.0644434  
H27      H      0.716220000000     0.832400000000     0.472130000000     0.0179385  
H28      H      0.507960000000     0.846410000000     0.476970000000     0.0425652  
H29      H      0.525500000000     0.768690000000     0.528530000000     0.0373286  
H30      H      0.659020000000     0.758500000000     0.391930000000     0.0701225  
H31      H      0.697750000000     0.342700000000     0.690630000000     0.0663677  
H32      H      0.587970000000     0.353770000000     0.707240000000     0.0442264  
H33      H      0.681160000000     0.366970000000     0.601060000000     0.0303162  
H34      H      0.640890000000     0.267430000000     0.551970000000     0.039749   
H35      H      0.509870000000     0.292030000000     0.674170000000     0.0441259  
H36      H      0.658500000000     0.304140000000     0.755860000000     0.0609349  
H37      H      0.553200000000     0.226810000000     0.710730000000     0.0170458  
H38      H      0.633850000000     0.367920000000     0.538360000000     0.0451346  
H39      H      0.554430000000     0.252330000000     0.545500000000     0.0401795  
H40      H      0.680950000000     0.261220000000     0.708630000000     0.0716316  
H41      H      0.717110000000     0.027090000000     0.794530000000     0.0674423  
H42      H      0.699900000000     0.083370000000     0.877600000000     0.039508   
H43      H      0.688570000000     0.178330000000     0.844220000000     0.0350506  
H44      H      0.632580000000     0.159060000000     0.752020000000     0.0384619  
H45      H      0.630190000000     0.012340000000     0.908000000000     0.0257255  
H46      H      0.665570000000     0.957280000000     0.839960000000     0.0577241  
H47      H      0.566640000000     0.978420000000     0.818730000000     0.0263208  
H48      H      0.609590000000     0.176860000000     0.850700000000     0.0438343  
H49      H      0.551550000000     0.097070000000     0.778610000000     0.0450102  
H50      H      0.641490000000     0.955410000000     0.766220000000     0.0664894  
H51      H      0.613340000000     0.156940000000     0.248820000000     0.0861112  
H52      H      0.501930000000     0.048650000000     0.293050000000     0.0404552  
H53      H      0.466860000000     0.922110000000     0.318870000000     0.0368537  
H54      H      0.562190000000     0.916710000000     0.285050000000     0.0444707  
H55      H      0.546780000000     0.107600000000     0.347160000000     0.0474617  
H56      H      0.673390000000     0.184760000000     0.307140000000     0.063771   
H57      H      0.644570000000     0.082110000000     0.343420000000     0.0346842  
H58      H      0.508390000000     0.910670000000     0.381330000000     0.0372938  
H59      H      0.619660000000     0.969360000000     0.339440000000     0.0429728  
H60      H      0.688100000000     0.147370000000     0.249290000000     0.0828724  
H61      H      0.479600000000     0.669480000000     0.938720000000     0.063881   
H62      H      0.491560000000     0.747760000000     0.015200000000     0.0459877  
H63      H      0.617230000000     0.794540000000     0.087220000000     0.0453682  
H64      H      0.707450000000     0.809260000000     0.023720000000     0.0307221  
H65      H      0.496930000000     0.811490000000     0.967350000000     0.0495535  
H66      H      0.471200000000     0.725530000000     0.888980000000     0.0606807  
H67      H      0.585920000000     0.814140000000     0.915800000000     0.01479    
H68      H      0.675450000000     0.878920000000     0.074680000000     0.0369895  
H69      H      0.692260000000     0.862050000000     0.975890000000     0.0284524  
H70      H      0.533670000000     0.702190000000     0.878860000000     0.0665864  
H71      H      0.542490000000     0.354010000000     0.220800000000     0.0643052  
H72      H      0.502360000000     0.252660000000     0.161340000000     0.035321   
H73      H      0.520630000000     0.281090000000     0.039010000000     0.0402796  
H74      H      0.628270000000     0.384900000000     0.028820000000     0.0414864  
H75      H      0.563010000000     0.231770000000     0.192870000000     0.0427823  
H76      H      0.594530000000     0.326950000000     0.260490000000     0.0589805  
H77      H      0.658820000000     0.339990000000     0.176030000000     0.0174995  
H78      H      0.585990000000     0.269000000000     0.015110000000     0.0463718  
H79      H      0.672990000000     0.353610000000     0.073180000000     0.0325745  
H80      H      0.633690000000     0.409620000000     0.232780000000     0.0778934  
H81      H      0.807910000000     0.426990000000     0.451790000000     0.0758468  
H82      H      0.730900000000     0.314330000000     0.407020000000     0.0385699  
H83      H      0.775740000000     0.229970000000     0.362270000000     0.0295262  
H84      H      0.848940000000     0.342200000000     0.379140000000     0.0347364  
H85      H      0.678120000000     0.276920000000     0.464840000000     0.0445114  
H86      H      0.740700000000     0.391670000000     0.501550000000     0.0646118  
H87      H      0.778290000000     0.308210000000     0.531840000000     0.0292144  
H88      H      0.806170000000     0.203840000000     0.423270000000     0.041076   
H89      H      0.899220000000     0.309430000000     0.411520000000     0.0308998  
H90      H      0.827500000000     0.427260000000     0.526950000000     0.0826202  
H91      H      0.379780000000     0.845690000000     0.730820000000     0.0665694  
H92      H      0.277660000000     0.797200000000     0.659870000000     0.0442904  
H93      H      0.317730000000     0.853190000000     0.550440000000     0.0508161  
H94      H      0.430050000000     0.868930000000     0.531600000000     0.0427351  
H95      H      0.259870000000     0.713950000000     0.666180000000     0.0528445  
H96      H      0.353400000000     0.761060000000     0.748540000000     0.0616903  
H97      H      0.375120000000     0.743060000000     0.651750000000     0.0141222  
H98      H      0.310300000000     0.796670000000     0.498680000000     0.0518825  
H99      H      0.401030000000     0.783650000000     0.547390000000     0.0360832  
H100     H      0.440340000000     0.817300000000     0.731300000000     0.0725685  
H101     H      0.694030000000     0.458300000000     0.662490000000     0.0904762  
H102     H      0.779800000000     0.459780000000     0.598860000000     0.0390652  
H103     H      0.824520000000     0.551340000000     0.504510000000     0.0423539  
H104     H      0.829720000000     0.654770000000     0.532620000000     0.0322513  
H105     H      0.841580000000     0.485160000000     0.657580000000     0.0469121  
H106     H      0.753690000000     0.487770000000     0.722010000000     0.063378   
H107     H      0.834700000000     0.582500000000     0.671420000000     0.0175625  
H108     H      0.910340000000     0.618380000000     0.514750000000     0.0494927  
H109     H      0.879170000000     0.658510000000     0.595290000000     0.034341   
H110     H      0.712840000000     0.533100000000     0.697240000000     0.0934276  
H111     H      0.347180000000     0.530560000000     0.500990000000     0.0843324  
H112     H      0.313900000000     0.442160000000     0.609730000000     0.0403986  
H113     H      0.393100000000     0.631840000000     0.568670000000     0.0467146  
H114     H      0.299710000000     0.643470000000     0.588400000000     0.049456   
H115     H      0.273600000000     0.473180000000     0.650050000000     0.042426   
H116     H      0.299450000000     0.441860000000     0.502010000000     0.0690276  
H117     H      0.211080000000     0.441860000000     0.559610000000     0.016235   
H118     H      0.394730000000     0.641860000000     0.644030000000     0.0261731  
H119     H      0.269690000000     0.579680000000     0.642420000000     0.041407   
H120     H      0.263660000000     0.486680000000     0.465810000000     0.0772489  
H121     H      0.130690000000     0.695610000000     0.864710000000     0.0806428  
H122     H      0.157150000000     0.667170000000     0.767920000000     0.0436849  
H123     H      0.180520000000     0.570610000000     0.773730000000     0.0358212  
H124     H      0.110470000000     0.482430000000     0.840080000000     0.035878   
H125     H      0.077750000000     0.653220000000     0.734530000000     0.0532633  
H126     H      0.060570000000     0.693160000000     0.822810000000     0.0631394  
H127     H      0.011540000000     0.573370000000     0.807170000000     0.0181936  
H128     H      0.122700000000     0.496730000000     0.737450000000     0.0458642  
H129     H      0.032440000000     0.471060000000     0.805000000000     0.0369896  
H130     H      0.042780000000     0.645820000000     0.886870000000     0.0905736  
H131     H      0.030280000000     0.384680000000     0.241050000000     0.0685476  
H132     H      0.095750000000     0.443540000000     0.336120000000     0.0293929  
H133     H      0.199000000000     0.554280000000     0.314860000000     0.0340127  
H134     H      0.176200000000     0.606560000000     0.232970000000     0.0465587  
H135     H      0.026030000000     0.439350000000     0.369720000000     0.0244909  
H136     H      0.966950000000     0.360280000000     0.293330000000     0.0584187  
H137     H      0.991280000000     0.481540000000     0.286160000000     0.0285849  
H138     H      0.200510000000     0.627410000000     0.335810000000     0.0424716  
H139     H      0.110800000000     0.611700000000     0.266110000000     0.054183   
H140     H      0.952860000000     0.387930000000     0.225490000000     0.0781864  
H141     H      0.949440000000     0.302670000000     0.948190000000     0.0808438  
H142     H      0.845830000000     0.238780000000     0.010950000000     0.047622   
H143     H      0.782440000000     0.305270000000     0.053260000000     0.0381789  
H144     H      0.792320000000     0.390960000000     0.981600000000     0.0393877  
H145     H      0.799000000000     0.187560000000     0.951600000000     0.044912   
H146     H      0.902560000000     0.256350000000     0.887000000000     0.0609492  
H147     H      0.814400000000     0.281420000000     0.893060000000     0.014251   
H148     H      0.701970000000     0.283120000000     0.016940000000     0.0439775  
H149     H      0.756040000000     0.331740000000     0.927390000000     0.0347978  
H150     H      0.941060000000     0.344300000000     0.884150000000     0.0768608  
H151     H      0.268260000000     0.648210000000     0.115220000000     0.0959276  
H152     H      0.322830000000     0.776360000000     0.073100000000     0.0547342  
H153     H      0.276200000000     0.860500000000     0.110480000000     0.0343711  
H154     H      0.206400000000     0.801970000000     0.187940000000     0.037524   
H155     H      0.399040000000     0.788580000000     0.112660000000     0.0518108  
H156     H      0.348060000000     0.673710000000     0.155260000000     0.0696423  
H157     H      0.337460000000     0.755770000000     0.201780000000     0.0183428  
H158     H      0.323080000000     0.905400000000     0.173180000000     0.0358239  
H159     H      0.276810000000     0.807410000000     0.231150000000     0.0371997  
H160     H      0.270530000000     0.637970000000     0.190840000000     0.0759883  
H161     H      0.934500000000     0.643520000000     0.186700000000     0.0772268  
H162     H      0.845870000000     0.620400000000     0.105380000000     0.0426541  
H163     H      0.824480000000     0.521970000000     0.028310000000     0.0525635  
H164     H      0.832990000000     0.432330000000     0.085560000000     0.0138714  
H165     H      0.776950000000     0.592500000000     0.152210000000     0.0597713  
H166     H      0.868260000000     0.621860000000     0.235150000000     0.0650962  
H167     H      0.800240000000     0.511450000000     0.197280000000     0.0186207  
H168     H      0.743640000000     0.449620000000     0.031310000000     0.0344469  
H169     H      0.772810000000     0.427160000000     0.132060000000     0.0311239  
H170     H      0.916570000000     0.580390000000     0.240550000000     0.0833028  
H171     H      0.313190000000     0.493000000000     0.990470000000     0.0730035  
H172     H      0.334380000000     0.632120000000     0.994770000000     0.0389318  
H173     H      0.244980000000     0.461260000000     0.067580000000     0.0342522  
H174     H      0.324050000000     0.475620000000     0.148030000000     0.0317434  
H175     H      0.360420000000     0.652990000000     0.067240000000     0.0407069  
H176     H      0.367700000000     0.561450000000     0.946040000000     0.0605087  
H177     H      0.435460000000     0.626590000000     0.026040000000     0.0261153  
H178     H      0.223310000000     0.493820000000     0.124010000000     0.043463   
H179     H      0.338920000000     0.556080000000     0.161320000000     0.0327582  
H180     H      0.401920000000     0.517700000000     0.986920000000     0.0856851  
H181     H      0.776320000000     0.822480000000     0.569260000000     0.0812964  
H182     H      0.707230000000     0.804940000000     0.685980000000     0.0429521  
H183     H      0.843320000000     0.759120000000     0.619140000000     0.0406404  
H184     H      0.940440000000     0.845490000000     0.666670000000     0.0492001  
H185     H      0.779890000000     0.822980000000     0.731210000000     0.0382601  
H186     H      0.717660000000     0.848360000000     0.588540000000     0.0719586  
H187     H      0.804840000000     0.918930000000     0.667410000000     0.0054144  
H188     H      0.837640000000     0.732130000000     0.692300000000     0.0338862  
H189     H      0.893810000000     0.843970000000     0.724680000000     0.0321056  
H190     H      0.796670000000     0.903330000000     0.558780000000     0.0814315  
H191     H      0.238810000000     0.254180000000     0.399320000000     0.0684971  
H192     H      0.316030000000     0.366440000000     0.446430000000     0.0350698  
H193     H      0.272210000000     0.342630000000     0.552300000000     0.0365854  
H194     H      0.269250000000     0.246960000000     0.604160000000     0.0408352  
H195     H      0.398560000000     0.375910000000     0.439630000000     0.0489874  
H196     H      0.320150000000     0.275520000000     0.372960000000     0.0578999  
H197     H      0.362860000000     0.265630000000     0.470140000000     0.0197791  
H198     H      0.334190000000     0.361170000000     0.609430000000     0.0427432  
H199     H      0.352110000000     0.270380000000     0.580260000000     0.0417449  
H200     H      0.268900000000     0.195980000000     0.404930000000     0.0624983  
H201     H      0.757330000000     0.007650000000     0.672120000000     0.0696642  
H202     H      0.764010000000     0.993790000000     0.561430000000     0.0583585  
H203     H      0.803760000000     0.083750000000     0.464030000000     0.0513323  
H204     H      0.824050000000     0.182320000000     0.510510000000     0.046226   
H205     H      0.832850000000     0.993310000000     0.597780000000     0.0536349  
H206     H      0.842920000000     0.051160000000     0.700560000000     0.057904   
H207     H      0.888980000000     0.112280000000     0.619660000000     0.00212498 
H208     H      0.894360000000     0.136580000000     0.464360000000     0.0385509  
H209     H      0.897800000000     0.191380000000     0.548630000000     0.032702   
H210     H      0.795950000000     0.093010000000     0.692250000000     0.0771465  
H211     H      0.377620000000     0.998890000000     0.681260000000     0.0619379  
H212     H      0.307830000000     0.048530000000     0.623150000000     0.0485264  
H213     H      0.319430000000     0.062070000000     0.498620000000     0.0402313  
H214     H      0.340670000000     0.975520000000     0.468100000000     0.0421121  
H215     H      0.228760000000     0.975940000000     0.641690000000     0.0511516  
H216     H      0.294130000000     0.937740000000     0.699660000000     0.0590673  
H217     H      0.259200000000     0.904270000000     0.600690000000     0.0200847  
H218     H      0.244890000000     0.998880000000     0.462650000000     0.0342572  
H219     H      0.267600000000     0.912890000000     0.502360000000     0.0347877  
H220     H      0.344580000000     0.911730000000     0.669370000000     0.0748126  
H221     H      0.162590000000     0.881890000000     0.465750000000     0.0788574  
H222     H      0.086350000000     0.751250000000     0.409320000000     0.0542022  
H223     H      0.065000000000     0.804360000000     0.557590000000     0.0560312  
H224     H      0.959600000000     0.812020000000     0.531260000000     0.034954   
H225     H      0.998060000000     0.725010000000     0.409540000000     0.0458697  
H226     H      0.165990000000     0.861240000000     0.393780000000     0.0659542  
H227     H      0.042600000000     0.835880000000     0.378430000000     0.0099565  
H228     H      0.985520000000     0.727600000000     0.560930000000     0.044198   
H229     H      0.940410000000     0.759800000000     0.473230000000     0.0277377  
H230     H      0.153210000000     0.928210000000     0.405510000000     0.0750829  
H231     H      0.098700000000     0.216270000000     0.462590000000     0.111982   
H232     H      0.019730000000     0.233860000000     0.535600000000     0.0528255  
H233     H      0.038910000000     0.257620000000     0.648980000000     0.0338285  
H234     H      0.152410000000     0.272590000000     0.670400000000     0.0360098  
H235     H      0.045490000000     0.302090000000     0.488710000000     0.0456789  
H236     H      0.134600000000     0.298340000000     0.434950000000     0.0653612  
H237     H      0.168220000000     0.346460000000     0.525550000000     0.0132364  
H238     H      0.092810000000     0.342700000000     0.666910000000     0.0374871  
H239     H      0.192810000000     0.348320000000     0.630980000000     0.0304299  
H240     H      0.189700000000     0.274470000000     0.471400000000     0.0868327  
H241     H      0.936980000000     0.968380000000     0.752470000000     0.0719007  
H242     H      0.005130000000     0.007340000000     0.844840000000     0.040066   
H243     H      0.152260000000     0.072210000000     0.840510000000     0.0415492  
H244     H      0.173350000000     0.113600000000     0.746420000000     0.0254488  
H245     H      0.977420000000     0.064480000000     0.859070000000     0.0454627  
H246     H      0.897340000000     0.011180000000     0.778440000000     0.058737   
H247     H      0.010430000000     0.119350000000     0.767780000000     0.0190077  
H248     H      0.191090000000     0.159880000000     0.846110000000     0.0415257  
H249     H      0.146230000000     0.171780000000     0.755970000000     0.0352982  
H250     H      0.926760000000     0.027720000000     0.708300000000     0.0791249  
H251     H      0.166260000000     0.170650000000     0.250180000000     0.0903977  
H252     H      0.037420000000     0.093430000000     0.277000000000     0.059482   
H253     H      0.953340000000     0.963810000000     0.278570000000     0.0361622  
H254     H      0.026090000000     0.915510000000     0.264620000000     0.0380474  
H255     H      0.081580000000     0.131780000000     0.341310000000     0.0516412  
H256     H      0.213690000000     0.174350000000     0.313840000000     0.0592126  
H257     H      0.143540000000     0.066110000000     0.341250000000    -0.000498367
H258     H      0.955140000000     0.919930000000     0.342070000000     0.0401385  
H259     H      0.074180000000     0.949210000000     0.328970000000     0.0399236  
H260     H      0.217530000000     0.131000000000     0.255350000000     0.0784115  
H261     H      0.761300000000     0.690890000000     0.988150000000     0.00450947 
H262     H      0.791760000000     0.815470000000     0.980890000000     0.0378704  
H263     H      0.789300000000     0.885890000000     0.072200000000     0.0317041  
H264     H      0.790430000000     0.826200000000     0.158880000000     0.0358015  
H265     H      0.874150000000     0.830290000000     0.967290000000     0.0448503  
H266     H      0.848290000000     0.720970000000     0.977210000000     0.0559781  
H267     H      0.884570000000     0.786540000000     0.061470000000     0.0180861  
H268     H      0.868600000000     0.932040000000     0.109870000000     0.032567   
H269     H      0.871610000000     0.836350000000     0.145430000000     0.0236859  
H270     H      0.816830000000     0.673790000000     0.038750000000     0.0712404  
H271     H      0.450730000000     0.304720000000     0.089320000000     0.0857727  
H272     H      0.368590000000     0.309130000000     0.157470000000     0.049538   
H273     H      0.295530000000     0.365560000000     0.155480000000     0.0360504  
H274     H      0.312750000000     0.416570000000     0.060800000000     0.0305964  
H275     H      0.327360000000     0.224910000000     0.138320000000     0.0491346  
H276     H      0.395100000000     0.233960000000     0.048070000000     0.072451   
H277     H      0.309180000000     0.260120000000     0.036560000000     0.000837968
H278     H      0.213540000000     0.324950000000     0.118690000000     0.0382447  
H279     H      0.263050000000     0.339190000000     0.027340000000     0.0342898  
H280     H      0.435380000000     0.313580000000     0.013310000000     0.0760492  
H281     H      0.788300000000     0.052400000000     0.998600000000     0.0792674  
H282     H      0.885290000000     0.118680000000     0.071570000000     0.0478393  
H283     H      0.891130000000     0.155120000000     0.176900000000     0.0340657  
H284     H      0.772900000000     0.090380000000     0.196290000000     0.0424684  
H285     H      0.907770000000     0.057940000000     0.061930000000     0.0773726  
H286     H      0.818610000000     0.995170000000     0.000450000000     0.0661976  
H287     H      0.797230000000     0.974710000000     0.105460000000     0.0170675  
H288     H      0.888600000000     0.098010000000     0.231520000000     0.0315783  
H289     H      0.774670000000     0.015210000000     0.204430000000     0.0407252  
H290     H      0.732800000000     0.965200000000     0.013850000000     0.0776432  
H291     H      0.178530000000     0.948770000000     0.101250000000     0.073189   
H292     H      0.254740000000     0.927560000000     0.051800000000     0.0407429  
H293     H      0.325950000000     0.965220000000     0.934580000000     0.040548   
H294     H      0.215800000000     0.945550000000     0.954570000000     0.0355301  
H295     H      0.318220000000     0.975750000000     0.105310000000     0.0423087  
H296     H      0.242180000000     0.007020000000     0.149180000000     0.0633953  
H297     H      0.314270000000     0.074880000000     0.073190000000     0.029923   
H298     H      0.364410000000     0.052900000000     0.941340000000     0.045924   
H299     H      0.249990000000     0.020350000000     0.913340000000     0.0334619  
H300     H      0.190100000000     0.029760000000     0.106110000000     0.093159   
H301     H      0.957530000000     0.805440000000     0.134940000000     0.0773479  
H302     H      0.940180000000     0.730450000000     0.046460000000     0.0395071  
H303     H      0.997950000000     0.770130000000     0.953900000000     0.0342948  
H304     H      0.104990000000     0.872590000000     0.966820000000     0.040787   
H305     H      0.965340000000     0.687120000000     0.096480000000     0.050663   
H306     H      0.994260000000     0.765790000000     0.178050000000     0.0642499  
H307     H      0.079790000000     0.790130000000     0.111170000000     0.0233756  
H308     H      0.068270000000     0.759100000000     0.940870000000     0.0363756  
H309     H      0.139590000000     0.836650000000     0.017340000000     0.0338121  
H310     H      0.043610000000     0.852710000000     0.166090000000     0.0813355  
H311     H      0.102500000000     0.328840000000     0.132990000000     0.0750119  
H312     H      0.936100000000     0.260900000000     0.101340000000     0.0404186  
H313     H      0.126260000000     0.385200000000     0.047810000000     0.0372501  
H314     H      0.137070000000     0.312060000000     0.992550000000     0.0355577  
H315     H      0.943030000000     0.239860000000     0.030690000000     0.0401241  
H316     H      0.030340000000     0.280040000000     0.175930000000     0.065823   
H317     H      0.983290000000     0.190440000000     0.105970000000     0.0305268  
H318     H      0.079620000000     0.383970000000     0.983130000000    -0.00877471 
H319     H      0.051280000000     0.276160000000     0.962310000000     0.0301324  
H320     H      0.088800000000     0.253140000000     0.163940000000     0.0965791  
N1       N      0.590120000000     0.549110000000     0.870870000000    -0.19095    
N2       N      0.610660000000     0.614620000000     0.766220000000    -0.175845   
N3       N      0.570970000000     0.543060000000     0.390310000000    -0.184828   
N4       N      0.599490000000     0.586460000000     0.277650000000    -0.179159   
N5       N      0.609190000000     0.777460000000     0.485770000000    -0.19588    
N6       N      0.617440000000     0.895700000000     0.479560000000    -0.167514   
N7       N      0.586790000000     0.234290000000     0.627520000000    -0.195855   
N8       N      0.584760000000     0.353770000000     0.616920000000    -0.158174   
N9       N      0.624160000000     0.066090000000     0.770500000000    -0.195366   
N10      N      0.612020000000     0.091400000000     0.882330000000    -0.159022   
N11      N      0.594650000000     0.019610000000     0.274030000000    -0.188475   
N12      N      0.521620000000     0.007120000000     0.368620000000    -0.181549   
N13      N      0.615830000000     0.761110000000     0.973230000000    -0.198647   
N14      N      0.577980000000     0.841100000000     0.031010000000    -0.156779   
N15      N      0.608730000000     0.374390000000     0.118160000000    -0.189994   
N16      N      0.560210000000     0.240380000000     0.101580000000    -0.175573   
N17      N      0.852350000000     0.340920000000     0.469200000000    -0.190943   
N18      N      0.730480000000     0.228750000000     0.438050000000    -0.157535   
N19      N      0.411050000000     0.838900000000     0.618760000000    -0.193995   
N20      N      0.274860000000     0.755570000000     0.581890000000    -0.151952   
N21      N      0.777920000000     0.578020000000     0.595710000000    -0.191108   
N22      N      0.875110000000     0.541970000000     0.580140000000    -0.173152   
N23      N      0.254020000000     0.544300000000     0.558260000000    -0.188208   
N24      N      0.368680000000     0.546000000000     0.619970000000    -0.174716   
N25      N      0.089570000000     0.560890000000     0.849140000000    -0.193087   
N26      N      0.098130000000     0.574470000000     0.730130000000    -0.16985    
N27      N      0.080130000000     0.515240000000     0.239650000000    -0.180145   
N28      N      0.112720000000     0.536490000000     0.357740000000    -0.181507   
N29      N      0.855740000000     0.353430000000     0.956320000000    -0.186183   
N30      N      0.748830000000     0.228040000000     0.994720000000    -0.170385   
N31      N      0.243050000000     0.739160000000     0.164980000000    -0.174013   
N32      N      0.364430000000     0.854340000000     0.131780000000    -0.170832   
N33      N      0.868640000000     0.516460000000     0.138600000000    -0.189428   
N34      N      0.758560000000     0.528210000000     0.083050000000    -0.170686   
N35      N      0.389600000000     0.551510000000     0.091750000000    -0.192561   
N36      N      0.269980000000     0.560780000000     0.054910000000    -0.186317   
N37      N      0.876270000000     0.888840000000     0.650470000000    -0.189242   
N38      N      0.764790000000     0.759740000000     0.663760000000    -0.175831   
N39      N      0.275150000000     0.241910000000     0.513810000000    -0.191517   
N40      N      0.371470000000     0.377730000000     0.524340000000    -0.176239   
N41      N      0.804920000000     0.117910000000     0.582090000000    -0.190385   
N42      N      0.857920000000     0.052920000000     0.521770000000    -0.170261   
N43      N      0.346700000000     0.977190000000     0.559340000000    -0.194537   
N44      N      0.239320000000     0.001340000000     0.553300000000    -0.177113   
N45      N      0.032620000000     0.851340000000     0.464270000000    -0.188333   
N46      N      0.046160000000     0.738660000000     0.491480000000    -0.150246   
N47      N      0.143130000000     0.264120000000     0.579610000000    -0.194099   
N48      N      0.062720000000     0.323630000000     0.578660000000    -0.187928   
N49      N      0.065280000000     0.074110000000     0.744090000000    -0.189234   
N50      N      0.084990000000     0.103860000000     0.862300000000    -0.173391   
N51      N      0.094360000000     0.020960000000     0.263410000000    -0.193081   
N52      N      0.013320000000     0.025930000000     0.346400000000    -0.173022   
N53      N      0.790770000000     0.767500000000     0.092050000000    -0.219528   
N54      N      0.871220000000     0.887650000000     0.033010000000    -0.190013   
N55      N      0.362470000000     0.360970000000     0.055740000000    -0.189629   
N56      N      0.264360000000     0.269070000000     0.131380000000    -0.175971   
N57      N      0.768130000000     0.043920000000     0.118710000000    -0.190996   
N58      N      0.905000000000     0.079340000000     0.148680000000    -0.163859   
N59      N      0.245010000000     0.030280000000     0.002560000000    -0.190131   
N60      N      0.348150000000     0.999300000000     0.019120000000    -0.176632   
N61      N      0.060000000000     0.846870000000     0.049710000000    -0.194446   
N62      N      0.019860000000     0.718440000000     0.019450000000    -0.183003   
N63      N      0.058860000000     0.241380000000     0.044810000000    -0.189527   
N64      N      0.018070000000     0.336090000000     0.054040000000    -0.186752   
O1       O      0.030010000000     0.135580000000     0.060710000000    -0.449409   
O2       O      0.970130000000     0.938150000000     0.985750000000    -0.442172   
O3       O      0.149150000000     0.141080000000     0.946450000000    -0.417282   
O4       O      0.969750000000     0.034310000000     0.137220000000    -0.516365   
O5       O      0.044060000000     0.064160000000     0.948470000000    -0.455586   
O6       O      0.019920000000     0.131040000000     0.172250000000    -0.398535   
O7       O      0.957120000000     0.990810000000     0.045510000000    -0.48643    
O8       O      0.129790000000     0.202700000000     0.028820000000    -0.439435   
O9       O      0.104000000000     0.083650000000     0.184060000000    -0.455316   
O10      O      0.162300000000     0.047510000000     0.958920000000    -0.443833   
O11      O      0.208370000000     0.163380000000     0.104780000000    -0.45311    
O12      O      0.020380000000     0.912940000000     0.082100000000    -0.431563   
O13      O      0.089050000000     0.946730000000     0.013030000000    -0.50317    
O14      O      0.147000000000     0.199300000000     0.131760000000    -0.396468   
O15      O      0.046890000000     0.978330000000     0.176150000000    -0.462127   
O16      O      0.222570000000     0.107270000000     0.029180000000    -0.47885    
O17      O      0.091270000000     0.061010000000     0.062350000000    -0.50937    
O18      O      0.054170000000     0.076780000000     0.429800000000    -0.448607   
O19      O      0.066860000000     0.161860000000     0.552790000000    -0.476764   
O20      O      0.896780000000     0.979360000000     0.515190000000    -0.407004   
O21      O      0.217490000000     0.143330000000     0.558370000000    -0.467815   
O22      O      0.964560000000     0.079360000000     0.503180000000    -0.427358   
O23      O      0.172710000000     0.155360000000     0.478560000000    -0.43822    
O24      O      0.143830000000     0.171820000000     0.617720000000    -0.424332   
O25      O      0.976560000000     0.974420000000     0.433530000000    -0.416133   
O26      O      0.183220000000     0.044730000000     0.503640000000    -0.468418   
O27      O      0.929720000000     0.994940000000     0.610980000000    -0.426904   
O28      O      0.031330000000     0.924060000000     0.521990000000    -0.451763   
O29      O      0.088000000000     0.039490000000     0.664290000000    -0.446995   
O30      O      0.035210000000     0.094280000000     0.655040000000    -0.454291   
O31      O      0.076570000000     0.964200000000     0.443300000000    -0.406013   
O32      O      0.159450000000     0.016890000000     0.593190000000    -0.430879   
O33      O      0.964390000000     0.928850000000     0.593290000000    -0.442888   
O34      O      0.061310000000     0.046940000000     0.543360000000    -0.512691   
O35      O      0.972760000000     0.410320000000     0.979380000000    -0.437528   
O36      O      0.045550000000     0.654470000000     0.076670000000    -0.479197   
O37      O      0.944910000000     0.534790000000     0.074400000000    -0.456754   
O38      O      0.116490000000     0.607920000000     0.936150000000    -0.461356   
O39      O      0.988420000000     0.572070000000     0.154330000000    -0.356251   
O40      O      0.084240000000     0.504040000000     0.932250000000    -0.472821   
O41      O      0.085770000000     0.675880000000     0.994660000000    -0.453137   
O42      O      0.910490000000     0.445870000000     0.009660000000    -0.441731   
O43      O      0.157830000000     0.508250000000     0.031010000000    -0.516727   
O44      O      0.109820000000     0.555560000000     0.150640000000    -0.456219   
O45      O      0.957790000000     0.380590000000     0.083140000000    -0.423971   
O46      O      0.180540000000     0.679980000000     0.085910000000    -0.468665   
O47      O      0.125770000000     0.671900000000     0.162290000000    -0.403785   
O48      O      0.061960000000     0.439710000000     0.079870000000    -0.499032   
O49      O      0.212370000000     0.613000000000     0.019030000000    -0.454209   
O50      O      0.004000000000     0.479800000000     0.160420000000    -0.404451   
O51      O      0.052940000000     0.540290000000     0.043180000000    -0.512524   
O52      O      0.964810000000     0.416620000000     0.464570000000    -0.480167   
O53      O      0.067630000000     0.684910000000     0.566120000000    -0.370176   
O54      O      0.938740000000     0.494290000000     0.609820000000    -0.438925   
O55      O      0.152150000000     0.604790000000     0.435170000000    -0.354474   
O56      O      0.973450000000     0.566070000000     0.540660000000    -0.39986    
O57      O      0.052430000000     0.525910000000     0.433110000000    -0.49058    
O58      O      0.070780000000     0.654400000000     0.480550000000    -0.37213    
O59      O      0.920780000000     0.394080000000     0.548140000000    -0.451694   
O60      O      0.160420000000     0.505190000000     0.492440000000    -0.429994   
O61      O      0.052860000000     0.592850000000     0.645210000000    -0.366381   
O62      O      0.036010000000     0.399280000000     0.607750000000    -0.461698   
O63      O      0.200980000000     0.701770000000     0.506820000000    -0.361386   
O64      O      0.167370000000     0.662910000000     0.591710000000    -0.386104   
O65      O      0.056490000000     0.398250000000     0.519760000000    -0.531115   
O66      O      0.189710000000     0.590660000000     0.542630000000    -0.416027   
O67      O      0.056300000000     0.502140000000     0.658650000000    -0.463858   
O68      O      0.056860000000     0.519960000000     0.542290000000    -0.52556    
O69      O      0.434290000000     0.045850000000     0.085980000000    -0.482537   
O70      O      0.553540000000     0.924700000000     0.019640000000    -0.405615   
O71      O      0.553620000000     0.121110000000     0.939420000000    -0.392047   
O72      O      0.470510000000     0.911410000000     0.092180000000    -0.410681   
O73      O      0.549730000000     0.026920000000     0.955850000000    -0.464406   
O74      O      0.443450000000     0.961160000000     0.151720000000    -0.467425   
O75      O      0.582820000000     0.902300000000     0.106190000000    -0.40901    
O76      O      0.457580000000     0.026830000000     0.003050000000    -0.426728   
O77      O      0.564870000000     0.059740000000     0.195590000000    -0.486333   
O78      O      0.685230000000     0.114090000000     0.992970000000    -0.414626   
O79      O      0.530670000000     0.153760000000     0.043630000000    -0.420351   
O80      O      0.663050000000     0.030290000000     0.134110000000    -0.429594   
O81      O      0.682920000000     0.019330000000     0.051200000000    -0.46659    
O82      O      0.552450000000     0.144790000000     0.134150000000    -0.470143   
O83      O      0.557030000000     0.964380000000     0.189070000000    -0.406413   
O84      O      0.641760000000     0.164870000000     0.028040000000    -0.444522   
O85      O      0.563150000000     0.047460000000     0.082970000000    -0.621403   
O86      O      0.443360000000     0.056060000000     0.603520000000    -0.498445   
O87      O      0.662310000000     0.003500000000     0.502250000000    -0.377294   
O88      O      0.529970000000     0.069680000000     0.440650000000    -0.495258   
O89      O      0.519770000000     0.913950000000     0.645170000000    -0.447236   
O90      O      0.557400000000     0.998900000000     0.459610000000    -0.424762   
O91      O      0.446480000000     0.946840000000     0.624950000000    -0.47006    
O92      O      0.582950000000     0.927880000000     0.553590000000    -0.443742   
O93      O      0.450660000000     0.036150000000     0.519360000000    -0.446128   
O94      O      0.539930000000     0.012840000000     0.704620000000    -0.509537   
O95      O      0.680680000000     0.115180000000     0.447530000000    -0.389841   
O96      O      0.559980000000     0.146370000000     0.574900000000    -0.504358   
O97      O      0.697090000000     0.037840000000     0.599680000000    -0.4762     
O98      O      0.709280000000     0.125580000000     0.556300000000    -0.406611   
O99      O      0.556390000000     0.129770000000     0.664860000000    -0.44876    
O100     O      0.638770000000     0.033720000000     0.685640000000    -0.46541    
O101     O      0.639630000000     0.166470000000     0.493740000000    -0.44313    
O102     O      0.568660000000     0.037700000000     0.574810000000    -0.511572   
O103     O      0.458740000000     0.450420000000     0.021710000000    -0.420245   
O104     O      0.595610000000     0.694900000000     0.048380000000    -0.50269    
O105     O      0.463740000000     0.526330000000     0.148390000000    -0.411889   
O106     O      0.658590000000     0.573040000000     0.952380000000    -0.473067   
O107     O      0.502700000000     0.612910000000     0.094130000000    -0.533382   
O108     O      0.554520000000     0.536350000000     0.961270000000    -0.472176   
O109     O      0.626650000000     0.669140000000     0.974600000000    -0.453928   
O110     O      0.458290000000     0.422820000000     0.110810000000    -0.442361   
O111     O      0.658160000000     0.498160000000     0.023860000000    -0.395535   
O112     O      0.570210000000     0.623700000000     0.194680000000    -0.459305   
O113     O      0.593420000000     0.457670000000     0.148550000000    -0.430798   
O114     O      0.690630000000     0.673190000000     0.070300000000    -0.689865   
O115     O      0.689020000000     0.717230000000     0.140740000000    -0.446794   
O116     O      0.548370000000     0.413400000000     0.068250000000    -0.472926   
O117     O      0.712320000000     0.591500000000     0.063980000000    -0.510947   
O118     O      0.609540000000     0.560310000000     0.189290000000    -0.462237   
O119     O      0.583790000000     0.561550000000     0.075090000000    -0.479359   
O120     O      0.483440000000     0.460660000000     0.511920000000    -0.413549   
O121     O      0.557930000000     0.678360000000     0.531690000000    -0.478052   
O122     O      0.451910000000     0.521780000000     0.654100000000    -0.392057   
O123     O      0.622790000000     0.615580000000     0.462040000000    -0.460427   
O124     O      0.471700000000     0.591240000000     0.584890000000    -0.489906   
O125     O      0.603400000000     0.515390000000     0.476660000000    -0.384301   
O126     O      0.664190000000     0.722610000000     0.519280000000    -0.465085   
O127     O      0.447580000000     0.434330000000     0.595340000000    -0.473566   
O128     O      0.660610000000     0.524750000000     0.595750000000    -0.421353   
O129     O      0.556150000000     0.619590000000     0.683580000000    -0.453855   
O130     O      0.560680000000     0.434450000000     0.638060000000    -0.411038   
O131     O      0.722380000000     0.676940000000     0.600180000000    -0.464923   
O132     O      0.654270000000     0.709770000000     0.626540000000    -0.45971    
O133     O      0.563780000000     0.414350000000     0.548560000000    -0.412491   
O134     O      0.709430000000     0.589990000000     0.527560000000    -0.463696   
O135     O      0.589900000000     0.548100000000     0.692580000000    -0.431308   
O136     O      0.578820000000     0.575510000000     0.574040000000    -0.549778   


