data_structure

_audit_creation_method RASPA-1.0
_audit_creation_date 2023-5-19
_audit_author_name 'Poobodin Mano'

_cell_length_a    28.8688
_cell_length_b    29.1306
_cell_length_c    29.5825
_cell_angle_alpha 90
_cell_angle_beta  90
_cell_angle_gamma 90
_cell_volume      24877.9

_symmetry_cell_setting          triclinic
_symmetry_space_group_name_Hall 'P 1'
_symmetry_space_group_name_H-M  'P 1'
_symmetry_Int_Tables_number     1

_symmetry_equiv_pos_as_xyz 'x,y,z'

loop_
_atom_site_label
_atom_site_type_symbol
_atom_site_fract_x
_atom_site_fract_y
_atom_site_fract_z
_atom_site_charge
C1       C      0.464760000000     0.458930000000     0.453450000000     0.390314   
C2       C      0.098610000000     0.098540000000     0.450120000000     0.390264   
C3       C      0.445790000000     0.117270000000     0.481390000000     0.391529   
C4       C      0.123450000000     0.443440000000     0.474710000000     0.400644   
C5       C      0.108540000000     0.461500000000     0.099170000000     0.408901   
C6       C      0.470800000000     0.091150000000     0.107340000000     0.412353   
C7       C      0.442190000000     0.435740000000     0.061750000000     0.406066   
C8       C      0.129410000000     0.121880000000     0.061330000000     0.400389   
C9       C      0.359330000000     0.355580000000     0.202050000000     0.399635   
C10      C      0.213640000000     0.212410000000     0.197690000000     0.408573   
C11      C      0.371230000000     0.192790000000     0.224200000000     0.398198   
C12      C      0.191370000000     0.376490000000     0.238280000000     0.400184   
C13      C      0.220450000000     0.343780000000     0.351330000000     0.39121    
C14      C      0.356750000000     0.210720000000     0.344280000000     0.397451   
C15      C      0.375540000000     0.371820000000     0.315730000000     0.404408   
C16      C      0.195700000000     0.196680000000     0.320680000000     0.404965   
C17      C      0.206760000000     0.138220000000     0.094620000000    -0.00860692 
C18      C      0.149840000000     0.200820000000     0.085910000000    -0.0319116  
C19      C      0.211180000000     0.147220000000     0.145310000000    -0.0142519  
C20      C      0.153330000000     0.213590000000     0.136640000000     0.0914239  
C21      C      0.150630000000     0.094410000000     0.384050000000    -0.0155762  
C22      C      0.098760000000     0.164020000000     0.398510000000    -0.0353462  
C23      C      0.187290000000     0.128170000000     0.367830000000    -0.00150388 
C24      C      0.118310000000     0.182460000000     0.353580000000     0.0918394  
C25      C      0.114180000000     0.394630000000     0.206010000000    -0.00796547 
C26      C      0.173960000000     0.455030000000     0.210310000000    -0.0353612  
C27      C      0.110930000000     0.399110000000     0.154790000000    -0.0170264  
C28      C      0.170790000000     0.464020000000     0.158670000000     0.0932652  
C29      C      0.377410000000     0.124450000000     0.175200000000    -0.0141275  
C30      C      0.443860000000     0.181460000000     0.181940000000    -0.0395486  
C31      C      0.412950000000     0.085960000000     0.168920000000    -0.0111581  
C32      C      0.477650000000     0.140850000000     0.177520000000     0.0970502  
C33      C      0.457390000000     0.391870000000     0.402990000000    -0.0168414  
C34      C      0.400560000000     0.458230000000     0.398470000000    -0.038392   
C35      C      0.451760000000     0.384690000000     0.352030000000    -0.00950151 
C36      C      0.397500000000     0.450290000000     0.347020000000     0.0937909  
C37      C      0.370380000000     0.132080000000     0.443370000000    -0.0128783  
C38      C      0.427860000000     0.194770000000     0.451240000000    -0.0371423  
C39      C      0.363580000000     0.142990000000     0.393260000000    -0.0134973  
C40      C      0.421390000000     0.208850000000     0.401060000000     0.0923055  
C41      C      0.164660000000     0.337890000000     0.415120000000    -0.0125049  
C42      C      0.230530000000     0.391810000000     0.420020000000    -0.037588   
C43      C      0.129960000000     0.375990000000     0.425530000000    -0.0115739  
C44      C      0.198050000000     0.432170000000     0.432790000000     0.0943598  
C45      C      0.363710000000     0.420270000000     0.147750000000    -0.0135164  
C46      C      0.423910000000     0.356680000000     0.147130000000    -0.0380029  
C47      C      0.365440000000     0.420970000000     0.095970000000    -0.0128116  
C48      C      0.422660000000     0.357900000000     0.095060000000     0.093876   
C49      C      0.464760000000     0.458930000000     0.953450000000     0.390295   
C50      C      0.098610000000     0.098540000000     0.950120000000     0.390191   
C51      C      0.445790000000     0.117270000000     0.981390000000     0.391481   
C52      C      0.123450000000     0.443440000000     0.974700000000     0.400565   
C53      C      0.108540000000     0.461500000000     0.599170000000     0.408946   
C54      C      0.470800000000     0.091150000000     0.607340000000     0.412459   
C55      C      0.442190000000     0.435740000000     0.561750000000     0.406129   
C56      C      0.129410000000     0.121880000000     0.561330000000     0.40044    
C57      C      0.359330000000     0.355580000000     0.702050000000     0.399634   
C58      C      0.213640000000     0.212410000000     0.697690000000     0.408576   
C59      C      0.371230000000     0.192790000000     0.724200000000     0.398246   
C60      C      0.191370000000     0.376490000000     0.738280000000     0.400184   
C61      C      0.220450000000     0.343780000000     0.851330000000     0.391283   
C62      C      0.356750000000     0.210720000000     0.844280000000     0.397456   
C63      C      0.375540000000     0.371820000000     0.815720000000     0.404442   
C64      C      0.195700000000     0.196680000000     0.820680000000     0.404969   
C65      C      0.206760000000     0.138220000000     0.594620000000    -0.00862309 
C66      C      0.149840000000     0.200820000000     0.585910000000    -0.0319274  
C67      C      0.211180000000     0.147220000000     0.645310000000    -0.0142459  
C68      C      0.153330000000     0.213590000000     0.636640000000     0.0914345  
C69      C      0.150630000000     0.094410000000     0.884050000000    -0.0155603  
C70      C      0.098760000000     0.164020000000     0.898500000000    -0.0353607  
C71      C      0.187290000000     0.128170000000     0.867830000000    -0.00151265 
C72      C      0.118310000000     0.182460000000     0.853590000000     0.0918234  
C73      C      0.114180000000     0.394630000000     0.706010000000    -0.00796962 
C74      C      0.173960000000     0.455030000000     0.710310000000    -0.0353624  
C75      C      0.110930000000     0.399110000000     0.654790000000    -0.0170096  
C76      C      0.170790000000     0.464020000000     0.658670000000     0.0932653  
C77      C      0.377410000000     0.124450000000     0.675200000000    -0.0141428  
C78      C      0.443860000000     0.181460000000     0.681940000000    -0.0395601  
C79      C      0.412950000000     0.085960000000     0.668920000000    -0.0111414  
C80      C      0.477650000000     0.140850000000     0.677520000000     0.0970699  
C81      C      0.457390000000     0.391870000000     0.902990000000    -0.0168488  
C82      C      0.400560000000     0.458230000000     0.898470000000    -0.0383936  
C83      C      0.451760000000     0.384690000000     0.852030000000    -0.0094982  
C84      C      0.397500000000     0.450290000000     0.847020000000     0.0937909  
C85      C      0.370380000000     0.132080000000     0.943370000000    -0.0128935  
C86      C      0.427860000000     0.194770000000     0.951240000000    -0.0371661  
C87      C      0.363580000000     0.142990000000     0.893260000000    -0.0134876  
C88      C      0.421390000000     0.208850000000     0.901060000000     0.0923236  
C89      C      0.164660000000     0.337890000000     0.915120000000    -0.0124995  
C90      C      0.230530000000     0.391810000000     0.920020000000    -0.0376015  
C91      C      0.129960000000     0.375990000000     0.925530000000    -0.0115885  
C92      C      0.198050000000     0.432170000000     0.932790000000     0.0944029  
C93      C      0.363710000000     0.420270000000     0.647750000000    -0.0135149  
C94      C      0.423910000000     0.356680000000     0.647130000000    -0.0380258  
C95      C      0.365440000000     0.420970000000     0.595970000000    -0.0128176  
C96      C      0.422660000000     0.357900000000     0.595060000000     0.093887   
C97      C      0.464760000000     0.958930000000     0.453450000000     0.39027    
C98      C      0.098610000000     0.598540000000     0.450120000000     0.390265   
C99      C      0.445790000000     0.617270000000     0.481390000000     0.391529   
C100     C      0.123450000000     0.943440000000     0.474710000000     0.400584   
C101     C      0.108540000000     0.961500000000     0.099170000000     0.408902   
C102     C      0.470800000000     0.591150000000     0.107340000000     0.412355   
C103     C      0.442190000000     0.935740000000     0.061750000000     0.406192   
C104     C      0.129410000000     0.621880000000     0.061330000000     0.400386   
C105     C      0.359330000000     0.855580000000     0.202050000000     0.399636   
C106     C      0.213640000000     0.712410000000     0.197690000000     0.408572   
C107     C      0.371230000000     0.692790000000     0.224200000000     0.398199   
C108     C      0.191370000000     0.876490000000     0.238280000000     0.400183   
C109     C      0.220450000000     0.843780000000     0.351330000000     0.391354   
C110     C      0.356750000000     0.710720000000     0.344280000000     0.397451   
C111     C      0.375540000000     0.871820000000     0.315730000000     0.404412   
C112     C      0.195700000000     0.696680000000     0.320680000000     0.404969   
C113     C      0.206760000000     0.638220000000     0.094620000000    -0.0086106  
C114     C      0.149840000000     0.700820000000     0.085910000000    -0.0319357  
C115     C      0.211180000000     0.647220000000     0.145310000000    -0.0142513  
C116     C      0.153330000000     0.713590000000     0.136640000000     0.0914309  
C117     C      0.150630000000     0.594410000000     0.384050000000    -0.0156083  
C118     C      0.098760000000     0.664020000000     0.398510000000    -0.0353775  
C119     C      0.187290000000     0.628180000000     0.367830000000    -0.00144874 
C120     C      0.118310000000     0.682450000000     0.353580000000     0.0918846  
C121     C      0.114180000000     0.894630000000     0.206010000000    -0.00796975 
C122     C      0.173960000000     0.955030000000     0.210310000000    -0.0354056  
C123     C      0.110930000000     0.899110000000     0.154790000000    -0.0170209  
C124     C      0.170790000000     0.964020000000     0.158670000000     0.0933846  
C125     C      0.377410000000     0.624450000000     0.175200000000    -0.0141001  
C126     C      0.443860000000     0.681460000000     0.181940000000    -0.0395467  
C127     C      0.412950000000     0.585950000000     0.168920000000    -0.0112277  
C128     C      0.477650000000     0.640850000000     0.177520000000     0.0970486  
C129     C      0.457390000000     0.891870000000     0.402990000000    -0.0168074  
C130     C      0.400560000000     0.958230000000     0.398470000000    -0.0384367  
C131     C      0.451760000000     0.884690000000     0.352030000000    -0.0095126  
C132     C      0.397500000000     0.950280000000     0.347020000000     0.0938404  
C133     C      0.370380000000     0.632070000000     0.443370000000    -0.0129202  
C134     C      0.427860000000     0.694770000000     0.451240000000    -0.0371434  
C135     C      0.363580000000     0.642990000000     0.393260000000    -0.0134812  
C136     C      0.421390000000     0.708850000000     0.401060000000     0.0923058  
C137     C      0.164660000000     0.837890000000     0.415120000000    -0.0124757  
C138     C      0.230530000000     0.891810000000     0.420020000000    -0.0375821  
C139     C      0.129960000000     0.875990000000     0.425530000000    -0.0115634  
C140     C      0.198050000000     0.932170000000     0.432790000000     0.0943299  
C141     C      0.363710000000     0.920270000000     0.147750000000    -0.0135224  
C142     C      0.423910000000     0.856680000000     0.147130000000    -0.0380054  
C143     C      0.365440000000     0.920970000000     0.095970000000    -0.0128024  
C144     C      0.422660000000     0.857900000000     0.095060000000     0.0938799  
C145     C      0.464760000000     0.958930000000     0.953450000000     0.390252   
C146     C      0.098610000000     0.598540000000     0.950120000000     0.390192   
C147     C      0.445790000000     0.617270000000     0.981390000000     0.391481   
C148     C      0.123450000000     0.943440000000     0.974700000000     0.400505   
C149     C      0.108540000000     0.961500000000     0.599170000000     0.408946   
C150     C      0.470800000000     0.591150000000     0.607340000000     0.41246    
C151     C      0.442190000000     0.935740000000     0.561750000000     0.406254   
C152     C      0.129410000000     0.621880000000     0.561330000000     0.400438   
C153     C      0.359330000000     0.855580000000     0.702050000000     0.399635   
C154     C      0.213640000000     0.712410000000     0.697690000000     0.408575   
C155     C      0.371230000000     0.692790000000     0.724200000000     0.398246   
C156     C      0.191370000000     0.876490000000     0.738280000000     0.400183   
C157     C      0.220450000000     0.843780000000     0.851330000000     0.391427   
C158     C      0.356750000000     0.710720000000     0.844280000000     0.397455   
C159     C      0.375540000000     0.871820000000     0.815720000000     0.404446   
C160     C      0.195700000000     0.696680000000     0.820680000000     0.404973   
C161     C      0.206760000000     0.638220000000     0.594620000000    -0.00862677 
C162     C      0.149840000000     0.700820000000     0.585910000000    -0.0319515  
C163     C      0.211180000000     0.647220000000     0.645310000000    -0.0142452  
C164     C      0.153330000000     0.713590000000     0.636640000000     0.0914415  
C165     C      0.150630000000     0.594410000000     0.884050000000    -0.0155924  
C166     C      0.098760000000     0.664020000000     0.898500000000    -0.035392   
C167     C      0.187290000000     0.628180000000     0.867830000000    -0.00145752 
C168     C      0.118310000000     0.682450000000     0.853590000000     0.0918686  
C169     C      0.114180000000     0.894630000000     0.706010000000    -0.00797389 
C170     C      0.173960000000     0.955030000000     0.710310000000    -0.0354068  
C171     C      0.110930000000     0.899110000000     0.654790000000    -0.0170042  
C172     C      0.170790000000     0.964020000000     0.658670000000     0.0933846  
C173     C      0.377410000000     0.624450000000     0.675200000000    -0.0141154  
C174     C      0.443860000000     0.681460000000     0.681940000000    -0.0395582  
C175     C      0.412950000000     0.585950000000     0.668920000000    -0.0112109  
C176     C      0.477650000000     0.640850000000     0.677520000000     0.0970683  
C177     C      0.457390000000     0.891870000000     0.902990000000    -0.0168147  
C178     C      0.400560000000     0.958230000000     0.898470000000    -0.0384384  
C179     C      0.451760000000     0.884690000000     0.852030000000    -0.00950929 
C180     C      0.397500000000     0.950280000000     0.847020000000     0.0938404  
C181     C      0.370380000000     0.632070000000     0.943370000000    -0.0129354  
C182     C      0.427860000000     0.694770000000     0.951240000000    -0.0371671  
C183     C      0.363580000000     0.642990000000     0.893260000000    -0.0134715  
C184     C      0.421390000000     0.708850000000     0.901060000000     0.0923239  
C185     C      0.164660000000     0.837890000000     0.915120000000    -0.0124703  
C186     C      0.230530000000     0.891810000000     0.920020000000    -0.0375956  
C187     C      0.129960000000     0.875990000000     0.925530000000    -0.011578   
C188     C      0.198050000000     0.932170000000     0.932790000000     0.0943729  
C189     C      0.363710000000     0.920270000000     0.647750000000    -0.013521   
C190     C      0.423910000000     0.856680000000     0.647130000000    -0.0380283  
C191     C      0.365440000000     0.920970000000     0.595970000000    -0.0128084  
C192     C      0.422660000000     0.857900000000     0.595060000000     0.0938909  
C193     C      0.964760000000     0.458930000000     0.453450000000     0.390137   
C194     C      0.598610000000     0.098540000000     0.450120000000     0.390266   
C195     C      0.945790000000     0.117270000000     0.481390000000     0.39141    
C196     C      0.623460000000     0.443440000000     0.474710000000     0.400605   
C197     C      0.608540000000     0.461500000000     0.099170000000     0.408895   
C198     C      0.970800000000     0.091150000000     0.107340000000     0.412172   
C199     C      0.942190000000     0.435740000000     0.061750000000     0.40607    
C200     C      0.629410000000     0.121880000000     0.061330000000     0.400398   
C201     C      0.859330000000     0.355580000000     0.202050000000     0.399633   
C202     C      0.713640000000     0.212410000000     0.197690000000     0.408576   
C203     C      0.871230000000     0.192790000000     0.224200000000     0.398198   
C204     C      0.691370000000     0.376490000000     0.238280000000     0.400187   
C205     C      0.720450000000     0.343780000000     0.351330000000     0.391207   
C206     C      0.856750000000     0.210720000000     0.344280000000     0.397451   
C207     C      0.875540000000     0.371820000000     0.315730000000     0.404407   
C208     C      0.695700000000     0.196680000000     0.320680000000     0.405057   
C209     C      0.706760000000     0.138220000000     0.094620000000    -0.00860596 
C210     C      0.649840000000     0.200820000000     0.085910000000    -0.0318821  
C211     C      0.711180000000     0.147220000000     0.145310000000    -0.0142522  
C212     C      0.653330000000     0.213590000000     0.136640000000     0.0914165  
C213     C      0.650630000000     0.094410000000     0.384050000000    -0.0155758  
C214     C      0.598760000000     0.164020000000     0.398510000000    -0.0353431  
C215     C      0.687290000000     0.128170000000     0.367830000000    -0.00150037 
C216     C      0.618310000000     0.182460000000     0.353580000000     0.0918386  
C217     C      0.614180000000     0.394630000000     0.206010000000    -0.00796116 
C218     C      0.673960000000     0.455030000000     0.210310000000    -0.0353321  
C219     C      0.610930000000     0.399110000000     0.154790000000    -0.0170306  
C220     C      0.670790000000     0.464020000000     0.158670000000     0.0932546  
C221     C      0.877410000000     0.124450000000     0.175200000000    -0.0141242  
C222     C      0.943860000000     0.181460000000     0.181940000000    -0.0395205  
C223     C      0.912950000000     0.085960000000     0.168920000000    -0.0111645  
C224     C      0.977650000000     0.140850000000     0.177520000000     0.0969331  
C225     C      0.957390000000     0.391870000000     0.402990000000    -0.0168537  
C226     C      0.900560000000     0.458230000000     0.398470000000    -0.0384001  
C227     C      0.951760000000     0.384690000000     0.352030000000    -0.00949542 
C228     C      0.897500000000     0.450290000000     0.347020000000     0.0937938  
C229     C      0.870380000000     0.132080000000     0.443370000000    -0.0128845  
C230     C      0.927860000000     0.194770000000     0.451240000000    -0.037148   
C231     C      0.863580000000     0.142990000000     0.393260000000    -0.0134947  
C232     C      0.921390000000     0.208850000000     0.401060000000     0.0923058  
C233     C      0.664660000000     0.337890000000     0.415120000000    -0.012533   
C234     C      0.730540000000     0.391810000000     0.420020000000    -0.037656   
C235     C      0.629960000000     0.375990000000     0.425530000000    -0.0115483  
C236     C      0.698050000000     0.432170000000     0.432790000000     0.0943786  
C237     C      0.863710000000     0.420270000000     0.147750000000    -0.0135478  
C238     C      0.923910000000     0.356680000000     0.147130000000    -0.0380004  
C239     C      0.865440000000     0.420970000000     0.095970000000    -0.0128013  
C240     C      0.922660000000     0.357900000000     0.095060000000     0.0938647  
C241     C      0.964760000000     0.458930000000     0.953450000000     0.390119   
C242     C      0.598610000000     0.098540000000     0.950120000000     0.390193   
C243     C      0.945790000000     0.117270000000     0.981390000000     0.391362   
C244     C      0.623460000000     0.443440000000     0.974700000000     0.400526   
C245     C      0.608540000000     0.461500000000     0.599170000000     0.40894    
C246     C      0.970800000000     0.091150000000     0.607340000000     0.412278   
C247     C      0.942190000000     0.435740000000     0.561750000000     0.406133   
C248     C      0.629410000000     0.121880000000     0.561330000000     0.40045    
C249     C      0.859330000000     0.355580000000     0.702050000000     0.399633   
C250     C      0.713640000000     0.212410000000     0.697690000000     0.408579   
C251     C      0.871230000000     0.192790000000     0.724200000000     0.398246   
C252     C      0.691370000000     0.376490000000     0.738280000000     0.400187   
C253     C      0.720450000000     0.343780000000     0.851330000000     0.39128    
C254     C      0.856750000000     0.210720000000     0.844280000000     0.397455   
C255     C      0.875540000000     0.371820000000     0.815720000000     0.404441   
C256     C      0.695700000000     0.196680000000     0.820680000000     0.405061   
C257     C      0.706760000000     0.138220000000     0.594620000000    -0.00862212 
C258     C      0.649840000000     0.200820000000     0.585910000000    -0.0318979  
C259     C      0.711180000000     0.147220000000     0.645310000000    -0.0142462  
C260     C      0.653330000000     0.213590000000     0.636640000000     0.0914271  
C261     C      0.650630000000     0.094410000000     0.884050000000    -0.0155599  
C262     C      0.598760000000     0.164020000000     0.898500000000    -0.0353576  
C263     C      0.687290000000     0.128170000000     0.867830000000    -0.00150913 
C264     C      0.618310000000     0.182460000000     0.853590000000     0.0918226  
C265     C      0.614180000000     0.394630000000     0.706010000000    -0.0079653  
C266     C      0.673960000000     0.455030000000     0.710310000000    -0.0353333  
C267     C      0.610930000000     0.399110000000     0.654790000000    -0.0170139  
C268     C      0.670790000000     0.464020000000     0.658670000000     0.0932546  
C269     C      0.877410000000     0.124450000000     0.675200000000    -0.0141395  
C270     C      0.943860000000     0.181460000000     0.681940000000    -0.0395319  
C271     C      0.912950000000     0.085960000000     0.668920000000    -0.0111478  
C272     C      0.977650000000     0.140850000000     0.677520000000     0.0969528  
C273     C      0.957390000000     0.391870000000     0.902990000000    -0.016861   
C274     C      0.900560000000     0.458230000000     0.898470000000    -0.0384018  
C275     C      0.951760000000     0.384690000000     0.852030000000    -0.00949212 
C276     C      0.897500000000     0.450290000000     0.847020000000     0.0937937  
C277     C      0.870380000000     0.132080000000     0.943370000000    -0.0128996  
C278     C      0.927860000000     0.194770000000     0.951240000000    -0.0371717  
C279     C      0.863580000000     0.142990000000     0.893260000000    -0.013485   
C280     C      0.921390000000     0.208850000000     0.901060000000     0.0923238  
C281     C      0.664660000000     0.337890000000     0.915120000000    -0.0125276  
C282     C      0.730540000000     0.391810000000     0.920020000000    -0.0376695  
C283     C      0.629960000000     0.375990000000     0.925530000000    -0.0115629  
C284     C      0.698050000000     0.432170000000     0.932790000000     0.0944217  
C285     C      0.863710000000     0.420270000000     0.647750000000    -0.0135463  
C286     C      0.923910000000     0.356680000000     0.647130000000    -0.0380233  
C287     C      0.865440000000     0.420970000000     0.595970000000    -0.0128072  
C288     C      0.922660000000     0.357900000000     0.595060000000     0.0938757  
C289     C      0.964760000000     0.958930000000     0.453450000000     0.390094   
C290     C      0.598610000000     0.598540000000     0.450120000000     0.390267   
C291     C      0.945790000000     0.617270000000     0.481390000000     0.39141    
C292     C      0.623460000000     0.943440000000     0.474710000000     0.400545   
C293     C      0.608540000000     0.961500000000     0.099170000000     0.408896   
C294     C      0.970800000000     0.591150000000     0.107340000000     0.412174   
C295     C      0.942190000000     0.935740000000     0.061750000000     0.406196   
C296     C      0.629410000000     0.621880000000     0.061330000000     0.400395   
C297     C      0.859330000000     0.855580000000     0.202050000000     0.399634   
C298     C      0.713640000000     0.712410000000     0.197690000000     0.408576   
C299     C      0.871230000000     0.692790000000     0.224200000000     0.398199   
C300     C      0.691370000000     0.876490000000     0.238280000000     0.400186   
C301     C      0.720450000000     0.843780000000     0.351330000000     0.391351   
C302     C      0.856750000000     0.710720000000     0.344280000000     0.39745    
C303     C      0.875540000000     0.871820000000     0.315730000000     0.404411   
C304     C      0.695700000000     0.696680000000     0.320680000000     0.405061   
C305     C      0.706760000000     0.638220000000     0.094620000000    -0.00860964 
C306     C      0.649840000000     0.700820000000     0.085910000000    -0.0319062  
C307     C      0.711180000000     0.647220000000     0.145310000000    -0.0142515  
C308     C      0.653330000000     0.713590000000     0.136640000000     0.0914235  
C309     C      0.650630000000     0.594410000000     0.384050000000    -0.015608   
C310     C      0.598760000000     0.664020000000     0.398510000000    -0.0353744  
C311     C      0.687290000000     0.628180000000     0.367830000000    -0.00144523 
C312     C      0.618310000000     0.682450000000     0.353580000000     0.0918838  
C313     C      0.614180000000     0.894630000000     0.206010000000    -0.00796543 
C314     C      0.673960000000     0.955030000000     0.210310000000    -0.0353764  
C315     C      0.610930000000     0.899110000000     0.154790000000    -0.0170251  
C316     C      0.670790000000     0.964020000000     0.158670000000     0.0933739  
C317     C      0.877410000000     0.624450000000     0.175200000000    -0.0140968  
C318     C      0.943860000000     0.681460000000     0.181940000000    -0.0395186  
C319     C      0.912950000000     0.585950000000     0.168920000000    -0.011234   
C320     C      0.977650000000     0.640850000000     0.177520000000     0.0969315  
C321     C      0.957390000000     0.891870000000     0.402990000000    -0.0168197  
C322     C      0.900560000000     0.958230000000     0.398470000000    -0.0384449  
C323     C      0.951760000000     0.884690000000     0.352030000000    -0.00950652 
C324     C      0.897500000000     0.950280000000     0.347020000000     0.0938432  
C325     C      0.870380000000     0.632070000000     0.443370000000    -0.0129263  
C326     C      0.927860000000     0.694770000000     0.451240000000    -0.037149   
C327     C      0.863580000000     0.642990000000     0.393260000000    -0.0134785  
C328     C      0.921390000000     0.708850000000     0.401060000000     0.0923061  
C329     C      0.664660000000     0.837890000000     0.415120000000    -0.0125038  
C330     C      0.730540000000     0.891810000000     0.420020000000    -0.03765    
C331     C      0.629960000000     0.875990000000     0.425530000000    -0.0115378  
C332     C      0.698050000000     0.932170000000     0.432790000000     0.0943486  
C333     C      0.863710000000     0.920270000000     0.147750000000    -0.0135538  
C334     C      0.923910000000     0.856680000000     0.147130000000    -0.0380029  
C335     C      0.865440000000     0.920970000000     0.095970000000    -0.0127921  
C336     C      0.922660000000     0.857900000000     0.095060000000     0.0938686  
C337     C      0.964760000000     0.958930000000     0.953450000000     0.390076   
C338     C      0.598610000000     0.598540000000     0.950120000000     0.390194   
C339     C      0.945790000000     0.617270000000     0.981390000000     0.391362   
C340     C      0.623460000000     0.943440000000     0.974700000000     0.400466   
C341     C      0.608540000000     0.961500000000     0.599170000000     0.40894    
C342     C      0.970800000000     0.591150000000     0.607340000000     0.41228    
C343     C      0.942190000000     0.935740000000     0.561750000000     0.406258   
C344     C      0.629410000000     0.621880000000     0.561330000000     0.400447   
C345     C      0.859330000000     0.855580000000     0.702050000000     0.399633   
C346     C      0.713640000000     0.712410000000     0.697690000000     0.408578   
C347     C      0.871230000000     0.692790000000     0.724200000000     0.398246   
C348     C      0.691370000000     0.876490000000     0.738280000000     0.400186   
C349     C      0.720450000000     0.843780000000     0.851330000000     0.391425   
C350     C      0.856750000000     0.710720000000     0.844280000000     0.397455   
C351     C      0.875540000000     0.871820000000     0.815720000000     0.404445   
C352     C      0.695700000000     0.696680000000     0.820680000000     0.405065   
C353     C      0.706760000000     0.638220000000     0.594620000000    -0.00862581 
C354     C      0.649840000000     0.700820000000     0.585910000000    -0.031922   
C355     C      0.711180000000     0.647220000000     0.645310000000    -0.0142455  
C356     C      0.653330000000     0.713590000000     0.636640000000     0.0914341  
C357     C      0.650630000000     0.594410000000     0.884050000000    -0.0155921  
C358     C      0.598760000000     0.664020000000     0.898500000000    -0.0353889  
C359     C      0.687290000000     0.628180000000     0.867830000000    -0.001454   
C360     C      0.618310000000     0.682450000000     0.853590000000     0.0918678  
C361     C      0.614180000000     0.894630000000     0.706010000000    -0.00796958 
C362     C      0.673960000000     0.955030000000     0.710310000000    -0.0353777  
C363     C      0.610930000000     0.899110000000     0.654790000000    -0.0170084  
C364     C      0.670790000000     0.964020000000     0.658670000000     0.093374   
C365     C      0.877410000000     0.624450000000     0.675200000000    -0.0141121  
C366     C      0.943860000000     0.681460000000     0.681940000000    -0.0395301  
C367     C      0.912950000000     0.585950000000     0.668920000000    -0.0112173  
C368     C      0.977650000000     0.640850000000     0.677520000000     0.0969512  
C369     C      0.957390000000     0.891870000000     0.902990000000    -0.016827   
C370     C      0.900560000000     0.958230000000     0.898470000000    -0.0384465  
C371     C      0.951760000000     0.884690000000     0.852030000000    -0.00950321 
C372     C      0.897500000000     0.950280000000     0.847020000000     0.0938432  
C373     C      0.870380000000     0.632070000000     0.943370000000    -0.0129415  
C374     C      0.927860000000     0.694770000000     0.951240000000    -0.0371728  
C375     C      0.863580000000     0.642990000000     0.893260000000    -0.0134688  
C376     C      0.921390000000     0.708850000000     0.901060000000     0.0923242  
C377     C      0.664660000000     0.837890000000     0.915120000000    -0.0124984  
C378     C      0.730540000000     0.891810000000     0.920020000000    -0.0376635  
C379     C      0.629960000000     0.875990000000     0.925530000000    -0.0115523  
C380     C      0.698050000000     0.932170000000     0.932790000000     0.0943917  
C381     C      0.863710000000     0.920270000000     0.647750000000    -0.0135523  
C382     C      0.923910000000     0.856680000000     0.647130000000    -0.0380258  
C383     C      0.865440000000     0.920970000000     0.595970000000    -0.012798   
C384     C      0.922660000000     0.857900000000     0.595060000000     0.0938796  
Co1      Co     0.035990000000     0.461050000000     0.526640000000     0.847098   
Co2      Co     0.535060000000     0.097040000000     0.028950000000     0.851506   
Co3      Co     0.467290000000     0.528620000000     0.527300000000     0.843332   
Co4      Co     0.103230000000     0.529910000000     0.024680000000     0.84981    
Co5      Co     0.285130000000     0.350150000000     0.272310000000     0.849909   
Co6      Co     0.284000000000     0.214950000000     0.272100000000     0.844388   
Co7      Co     0.353090000000     0.281860000000     0.271460000000     0.848026   
Co8      Co     0.215960000000     0.282890000000     0.270710000000     0.856429   
Co9      Co     0.035990000000     0.461050000000     0.026640000000     0.846526   
Co10     Co     0.535060000000     0.097040000000     0.528950000000     0.852024   
Co11     Co     0.467290000000     0.528620000000     0.027300000000     0.842807   
Co12     Co     0.103230000000     0.529910000000     0.524680000000     0.850268   
Co13     Co     0.285130000000     0.350150000000     0.772310000000     0.849913   
Co14     Co     0.284000000000     0.214950000000     0.772100000000     0.844388   
Co15     Co     0.353090000000     0.281860000000     0.771460000000     0.848028   
Co16     Co     0.215960000000     0.282890000000     0.770710000000     0.85643    
Co17     Co     0.035990000000     0.961050000000     0.526640000000     0.847192   
Co18     Co     0.535060000000     0.597040000000     0.028950000000     0.85139    
Co19     Co     0.467290000000     0.028620000000     0.527300000000     0.843062   
Co20     Co     0.103230000000     0.029910000000     0.024680000000     0.849563   
Co21     Co     0.285130000000     0.850150000000     0.272310000000     0.849921   
Co22     Co     0.284000000000     0.714950000000     0.272100000000     0.844388   
Co23     Co     0.353090000000     0.781860000000     0.271460000000     0.848023   
Co24     Co     0.215960000000     0.782890000000     0.270710000000     0.856417   
Co25     Co     0.035990000000     0.961050000000     0.026640000000     0.84662    
Co26     Co     0.535060000000     0.597040000000     0.528950000000     0.851907   
Co27     Co     0.467290000000     0.028620000000     0.027300000000     0.842537   
Co28     Co     0.103230000000     0.029910000000     0.524680000000     0.850022   
Co29     Co     0.285130000000     0.850150000000     0.772310000000     0.849926   
Co30     Co     0.284000000000     0.714950000000     0.772100000000     0.844389   
Co31     Co     0.353090000000     0.781860000000     0.771460000000     0.848024   
Co32     Co     0.215960000000     0.782890000000     0.770710000000     0.856418   
Co33     Co     0.535990000000     0.461050000000     0.526640000000     0.846956   
Co34     Co     0.035050000000     0.097040000000     0.028950000000     0.851658   
Co35     Co     0.967290000000     0.528620000000     0.527300000000     0.843108   
Co36     Co     0.603230000000     0.529910000000     0.024680000000     0.849802   
Co37     Co     0.785130000000     0.350150000000     0.272310000000     0.849908   
Co38     Co     0.784000000000     0.214950000000     0.272100000000     0.844399   
Co39     Co     0.853090000000     0.281860000000     0.271460000000     0.848025   
Co40     Co     0.715960000000     0.282890000000     0.270710000000     0.856481   
Co41     Co     0.535990000000     0.461050000000     0.026640000000     0.846384   
Co42     Co     0.035050000000     0.097040000000     0.528950000000     0.852176   
Co43     Co     0.967290000000     0.528620000000     0.027300000000     0.842583   
Co44     Co     0.603230000000     0.529910000000     0.524680000000     0.850261   
Co45     Co     0.785130000000     0.350150000000     0.772310000000     0.849912   
Co46     Co     0.784000000000     0.214950000000     0.772100000000     0.8444     
Co47     Co     0.853090000000     0.281860000000     0.771460000000     0.848026   
Co48     Co     0.715960000000     0.282890000000     0.770710000000     0.856482   
Co49     Co     0.535990000000     0.961050000000     0.526640000000     0.84705    
Co50     Co     0.035050000000     0.597040000000     0.028950000000     0.851541   
Co51     Co     0.967290000000     0.028620000000     0.527300000000     0.842838   
Co52     Co     0.603230000000     0.029910000000     0.024680000000     0.849555   
Co53     Co     0.785130000000     0.850150000000     0.272310000000     0.84992    
Co54     Co     0.784000000000     0.714950000000     0.272100000000     0.844399   
Co55     Co     0.853090000000     0.781860000000     0.271460000000     0.848021   
Co56     Co     0.715960000000     0.782890000000     0.270710000000     0.856469   
Co57     Co     0.535990000000     0.961050000000     0.026640000000     0.846478   
Co58     Co     0.035050000000     0.597040000000     0.528950000000     0.852059   
Co59     Co     0.967290000000     0.028620000000     0.027300000000     0.842314   
Co60     Co     0.603230000000     0.029910000000     0.524680000000     0.850014   
Co61     Co     0.785130000000     0.850150000000     0.772310000000     0.849925   
Co62     Co     0.784000000000     0.714950000000     0.772100000000     0.8444     
Co63     Co     0.853090000000     0.781860000000     0.771460000000     0.848023   
Co64     Co     0.715960000000     0.782890000000     0.770710000000     0.85647    
H1       H      0.189650000000     0.121640000000     0.163610000000     0.0754275  
H2       H      0.214260000000     0.101460000000     0.087730000000     0.0667538  
H3       H      0.122960000000     0.197650000000     0.153570000000     0.0673292  
H4       H      0.114960000000     0.210040000000     0.072870000000     0.0837302  
H5       H      0.247850000000     0.140800000000     0.154970000000     0.0610922  
H6       H      0.233330000000     0.159150000000     0.076810000000     0.0471308  
H7       H      0.175450000000     0.221220000000     0.066310000000     0.0669648  
H8       H      0.208500000000     0.139350000000     0.397230000000     0.0493416  
H9       H      0.168500000000     0.066740000000     0.403180000000     0.0622953  
H10      H      0.116110000000     0.220570000000     0.357070000000     0.0447029  
H11      H      0.108720000000     0.188220000000     0.425990000000     0.0582771  
H12      H      0.210990000000     0.109820000000     0.344300000000     0.0601869  
H13      H      0.133960000000     0.077410000000     0.354750000000     0.0639509  
H14      H      0.060200000000     0.164640000000     0.397450000000     0.0682293  
H15      H      0.132570000000     0.371820000000     0.139200000000     0.0740952  
H16      H      0.104580000000     0.359150000000     0.216140000000     0.0655648  
H17      H      0.200470000000     0.445570000000     0.142890000000     0.045818   
H18      H      0.209330000000     0.463510000000     0.222570000000     0.0782596  
H19      H      0.074400000000     0.392270000000     0.145050000000     0.0713531  
H20      H      0.088630000000     0.418550000000     0.221450000000     0.0487043  
H21      H      0.149440000000     0.478000000000     0.228410000000     0.0709352  
H22      H      0.420770000000     0.071110000000     0.202720000000     0.0505897  
H23      H      0.347590000000     0.110470000000     0.194600000000     0.0599043  
H24      H      0.480960000000     0.126320000000     0.212310000000     0.0451837  
H25      H      0.459070000000     0.207080000000     0.205550000000     0.0825227  
H26      H      0.397220000000     0.058220000000     0.148200000000     0.0548578  
H27      H      0.364250000000     0.134640000000     0.141330000000     0.0506849  
H28      H      0.439300000000     0.198350000000     0.148520000000     0.0763836  
H29      H      0.479080000000     0.404940000000     0.334540000000     0.0454902  
H30      H      0.493840000000     0.383840000000     0.412210000000     0.0626877  
H31      H      0.427190000000     0.469660000000     0.332170000000     0.0373652  
H32      H      0.397800000000     0.495710000000     0.405170000000     0.0760993  
H33      H      0.458170000000     0.347960000000     0.344120000000     0.0689934  
H34      H      0.434830000000     0.366840000000     0.420850000000     0.0728161  
H35      H      0.371000000000     0.441040000000     0.415630000000     0.0771338  
H36      H      0.384950000000     0.118630000000     0.373180000000     0.0562937  
H37      H      0.363740000000     0.094910000000     0.448880000000     0.0599642  
H38      H      0.450430000000     0.192870000000     0.381890000000     0.0428891  
H39      H      0.463740000000     0.203240000000     0.462000000000     0.0806004  
H40      H      0.326710000000     0.136040000000     0.384770000000     0.0599034  
H41      H      0.344130000000     0.151640000000     0.463030000000     0.0489956  
H42      H      0.404060000000     0.215190000000     0.472880000000     0.0731416  
H43      H      0.114360000000     0.387710000000     0.393140000000     0.0490676  
H44      H      0.147420000000     0.311130000000     0.394270000000     0.0552424  
H45      H      0.192420000000     0.452480000000     0.401370000000     0.0429416  
H46      H      0.261550000000     0.405260000000     0.402240000000     0.0833176  
H47      H      0.101540000000     0.360770000000     0.446010000000     0.0608371  
H48      H      0.175200000000     0.321720000000     0.447600000000     0.0501155  
H49      H      0.243050000000     0.374670000000     0.451300000000     0.0699544  
H50      H      0.338450000000     0.397060000000     0.083080000000     0.0538947  
H51      H      0.327750000000     0.428230000000     0.158670000000     0.0598183  
H52      H      0.392670000000     0.335870000000     0.085120000000     0.0419535  
H53      H      0.430240000000     0.320740000000     0.158190000000     0.0783707  
H54      H      0.356270000000     0.455870000000     0.083730000000     0.0616576  
H55      H      0.386530000000     0.448100000000     0.160650000000     0.0521429  
H56      H      0.453110000000     0.378160000000     0.159540000000     0.0694352  
H57      H      0.189650000000     0.121640000000     0.663610000000     0.0754207  
H58      H      0.214260000000     0.101460000000     0.587740000000     0.0668017  
H59      H      0.122960000000     0.197650000000     0.653570000000     0.067323   
H60      H      0.114960000000     0.210040000000     0.572870000000     0.0837924  
H61      H      0.247850000000     0.140800000000     0.654970000000     0.0611006  
H62      H      0.233330000000     0.159150000000     0.576810000000     0.047207   
H63      H      0.175450000000     0.221220000000     0.566310000000     0.0670443  
H64      H      0.208500000000     0.139350000000     0.897230000000     0.049382   
H65      H      0.168500000000     0.066740000000     0.903190000000     0.062308   
H66      H      0.116110000000     0.220570000000     0.857070000000     0.0447168  
H67      H      0.108720000000     0.188220000000     0.925990000000     0.0583327  
H68      H      0.210990000000     0.109820000000     0.844300000000     0.0601912  
H69      H      0.133960000000     0.077410000000     0.854750000000     0.0639444  
H70      H      0.060200000000     0.164640000000     0.897450000000     0.0682419  
H71      H      0.132570000000     0.371820000000     0.639190000000     0.0741111  
H72      H      0.104580000000     0.359150000000     0.716140000000     0.0655641  
H73      H      0.200470000000     0.445570000000     0.642890000000     0.0458356  
H74      H      0.209330000000     0.463510000000     0.722570000000     0.0782582  
H75      H      0.074400000000     0.392270000000     0.645050000000     0.0713519  
H76      H      0.088630000000     0.418550000000     0.721450000000     0.048699   
H77      H      0.149440000000     0.478000000000     0.728410000000     0.0709306  
H78      H      0.420770000000     0.071110000000     0.702720000000     0.0505815  
H79      H      0.347590000000     0.110470000000     0.694600000000     0.0599127  
H80      H      0.480960000000     0.126320000000     0.712320000000     0.0451829  
H81      H      0.459070000000     0.207080000000     0.705550000000     0.0825254  
H82      H      0.397220000000     0.058220000000     0.648200000000     0.05487    
H83      H      0.364250000000     0.134640000000     0.641330000000     0.0507222  
H84      H      0.439300000000     0.198350000000     0.648520000000     0.0764084  
H85      H      0.479080000000     0.404940000000     0.834540000000     0.045486   
H86      H      0.493840000000     0.383840000000     0.912210000000     0.0627137  
H87      H      0.427190000000     0.469660000000     0.832170000000     0.0373624  
H88      H      0.397800000000     0.495710000000     0.905170000000     0.0761184  
H89      H      0.458170000000     0.347960000000     0.844120000000     0.0689934  
H90      H      0.434830000000     0.366840000000     0.920850000000     0.0728638  
H91      H      0.371000000000     0.441040000000     0.915630000000     0.0771768  
H92      H      0.384950000000     0.118630000000     0.873180000000     0.0562906  
H93      H      0.363740000000     0.094910000000     0.948880000000     0.0600146  
H94      H      0.450430000000     0.192870000000     0.881890000000     0.042884   
H95      H      0.463740000000     0.203240000000     0.962000000000     0.0806661  
H96      H      0.326710000000     0.136040000000     0.884770000000     0.0599145  
H97      H      0.344130000000     0.151640000000     0.963030000000     0.0490794  
H98      H      0.404060000000     0.215190000000     0.972880000000     0.0732372  
H99      H      0.114360000000     0.387710000000     0.893150000000     0.0490734  
H100     H      0.147420000000     0.311130000000     0.894270000000     0.0552607  
H101     H      0.192420000000     0.452480000000     0.901370000000     0.0429247  
H102     H      0.261550000000     0.405260000000     0.902240000000     0.0833426  
H103     H      0.101540000000     0.360770000000     0.946010000000     0.0608937  
H104     H      0.175200000000     0.321720000000     0.947600000000     0.0501946  
H105     H      0.243050000000     0.374670000000     0.951300000000     0.0700618  
H106     H      0.338450000000     0.397060000000     0.583080000000     0.0539523  
H107     H      0.327750000000     0.428230000000     0.658670000000     0.0598243  
H108     H      0.392670000000     0.335870000000     0.585120000000     0.0420043  
H109     H      0.430240000000     0.320740000000     0.658190000000     0.0783788  
H110     H      0.356270000000     0.455870000000     0.583730000000     0.0617083  
H111     H      0.386530000000     0.448100000000     0.660650000000     0.0521377  
H112     H      0.453110000000     0.378160000000     0.659530000000     0.0694369  
H113     H      0.189650000000     0.621640000000     0.163610000000     0.0754328  
H114     H      0.214260000000     0.601460000000     0.087730000000     0.0667711  
H115     H      0.122960000000     0.697650000000     0.153570000000     0.0673285  
H116     H      0.114960000000     0.710040000000     0.072870000000     0.083736   
H117     H      0.247850000000     0.640800000000     0.154970000000     0.0610979  
H118     H      0.233330000000     0.659150000000     0.076810000000     0.047135   
H119     H      0.175450000000     0.721210000000     0.066310000000     0.0669732  
H120     H      0.208500000000     0.639350000000     0.397230000000     0.0493316  
H121     H      0.168500000000     0.566740000000     0.403180000000     0.0623381  
H122     H      0.116110000000     0.720570000000     0.357070000000     0.0447035  
H123     H      0.108720000000     0.688220000000     0.425990000000     0.0582826  
H124     H      0.210990000000     0.609820000000     0.344300000000     0.0601875  
H125     H      0.133960000000     0.577410000000     0.354750000000     0.0639844  
H126     H      0.060200000000     0.664640000000     0.397450000000     0.0682398  
H127     H      0.132570000000     0.871820000000     0.139200000000     0.0740923  
H128     H      0.104580000000     0.859150000000     0.216140000000     0.0655672  
H129     H      0.200470000000     0.945570000000     0.142890000000     0.0458131  
H130     H      0.209330000000     0.963500000000     0.222570000000     0.0783107  
H131     H      0.074400000000     0.892270000000     0.145050000000     0.0713567  
H132     H      0.088630000000     0.918550000000     0.221450000000     0.0487215  
H133     H      0.149440000000     0.978000000000     0.228410000000     0.070994   
H134     H      0.420770000000     0.571110000000     0.202720000000     0.0506381  
H135     H      0.347590000000     0.610470000000     0.194600000000     0.0599116  
H136     H      0.480960000000     0.626320000000     0.212310000000     0.0451954  
H137     H      0.459070000000     0.707080000000     0.205550000000     0.0825224  
H138     H      0.397220000000     0.558220000000     0.148200000000     0.0549154  
H139     H      0.364250000000     0.634640000000     0.141330000000     0.0506846  
H140     H      0.439300000000     0.698350000000     0.148520000000     0.0763823  
H141     H      0.479080000000     0.904940000000     0.334540000000     0.045503   
H142     H      0.493840000000     0.883840000000     0.412210000000     0.062682   
H143     H      0.427190000000     0.969670000000     0.332170000000     0.037401   
H144     H      0.397800000000     0.995710000000     0.405170000000     0.0761527  
H145     H      0.458170000000     0.847960000000     0.344120000000     0.0689967  
H146     H      0.434830000000     0.866840000000     0.420850000000     0.0728083  
H147     H      0.371000000000     0.941040000000     0.415630000000     0.0771503  
H148     H      0.384950000000     0.618630000000     0.373180000000     0.056307   
H149     H      0.363740000000     0.594910000000     0.448880000000     0.0600079  
H150     H      0.450430000000     0.692870000000     0.381890000000     0.0428924  
H151     H      0.463740000000     0.703240000000     0.462000000000     0.0806003  
H152     H      0.326710000000     0.636040000000     0.384770000000     0.05991    
H153     H      0.344130000000     0.651640000000     0.463030000000     0.0490122  
H154     H      0.404060000000     0.715190000000     0.472880000000     0.0731414  
H155     H      0.114360000000     0.887710000000     0.393140000000     0.0490715  
H156     H      0.147420000000     0.811130000000     0.394270000000     0.0552363  
H157     H      0.192420000000     0.952480000000     0.401370000000     0.0429683  
H158     H      0.261550000000     0.905270000000     0.402240000000     0.0833169  
H159     H      0.101540000000     0.860770000000     0.446010000000     0.0608345  
H160     H      0.175200000000     0.821720000000     0.447600000000     0.0501098  
H161     H      0.243050000000     0.874670000000     0.451300000000     0.0699556  
H162     H      0.338450000000     0.897060000000     0.083080000000     0.053897   
H163     H      0.327750000000     0.928230000000     0.158670000000     0.0598382  
H164     H      0.392670000000     0.835870000000     0.085120000000     0.0419519  
H165     H      0.430240000000     0.820740000000     0.158190000000     0.0783709  
H166     H      0.356270000000     0.955870000000     0.083730000000     0.0616844  
H167     H      0.386530000000     0.948100000000     0.160650000000     0.0521752  
H168     H      0.453110000000     0.878160000000     0.159540000000     0.0694426  
H169     H      0.189650000000     0.621640000000     0.663610000000     0.0754259  
H170     H      0.214260000000     0.601460000000     0.587740000000     0.066819   
H171     H      0.122960000000     0.697650000000     0.653570000000     0.0673223  
H172     H      0.114960000000     0.710040000000     0.572870000000     0.0837982  
H173     H      0.247850000000     0.640800000000     0.654970000000     0.0611063  
H174     H      0.233330000000     0.659150000000     0.576810000000     0.0472113  
H175     H      0.175450000000     0.721210000000     0.566310000000     0.0670526  
H176     H      0.208500000000     0.639350000000     0.897230000000     0.049372   
H177     H      0.168500000000     0.566740000000     0.903190000000     0.0623507  
H178     H      0.116110000000     0.720570000000     0.857070000000     0.0447174  
H179     H      0.108720000000     0.688220000000     0.925990000000     0.0583382  
H180     H      0.210990000000     0.609820000000     0.844300000000     0.0601918  
H181     H      0.133960000000     0.577410000000     0.854750000000     0.0639779  
H182     H      0.060200000000     0.664640000000     0.897450000000     0.0682524  
H183     H      0.132570000000     0.871820000000     0.639190000000     0.0741082  
H184     H      0.104580000000     0.859150000000     0.716140000000     0.0655666  
H185     H      0.200470000000     0.945570000000     0.642890000000     0.0458307  
H186     H      0.209330000000     0.963500000000     0.722570000000     0.0783093  
H187     H      0.074400000000     0.892270000000     0.645050000000     0.0713554  
H188     H      0.088630000000     0.918550000000     0.721450000000     0.0487161  
H189     H      0.149440000000     0.978000000000     0.728410000000     0.0709894  
H190     H      0.420770000000     0.571110000000     0.702720000000     0.0506299  
H191     H      0.347590000000     0.610470000000     0.694600000000     0.0599199  
H192     H      0.480960000000     0.626320000000     0.712320000000     0.0451946  
H193     H      0.459070000000     0.707080000000     0.705550000000     0.0825251  
H194     H      0.397220000000     0.558220000000     0.648200000000     0.0549277  
H195     H      0.364250000000     0.634640000000     0.641330000000     0.050722   
H196     H      0.439300000000     0.698350000000     0.648520000000     0.0764072  
H197     H      0.479080000000     0.904940000000     0.834540000000     0.0454989  
H198     H      0.493840000000     0.883840000000     0.912210000000     0.062708   
H199     H      0.427190000000     0.969670000000     0.832170000000     0.0373981  
H200     H      0.397800000000     0.995710000000     0.905170000000     0.0761718  
H201     H      0.458170000000     0.847960000000     0.844120000000     0.0689967  
H202     H      0.434830000000     0.866840000000     0.920850000000     0.072856   
H203     H      0.371000000000     0.941040000000     0.915630000000     0.0771933  
H204     H      0.384950000000     0.618630000000     0.873180000000     0.056304   
H205     H      0.363740000000     0.594910000000     0.948880000000     0.0600584  
H206     H      0.450430000000     0.692870000000     0.881890000000     0.0428873  
H207     H      0.463740000000     0.703240000000     0.962000000000     0.0806661  
H208     H      0.326710000000     0.636040000000     0.884770000000     0.0599211  
H209     H      0.344130000000     0.651640000000     0.963030000000     0.049096   
H210     H      0.404060000000     0.715190000000     0.972880000000     0.0732369  
H211     H      0.114360000000     0.887710000000     0.893150000000     0.0490773  
H212     H      0.147420000000     0.811130000000     0.894270000000     0.0552546  
H213     H      0.192420000000     0.952480000000     0.901370000000     0.0429514  
H214     H      0.261550000000     0.905270000000     0.902240000000     0.0833418  
H215     H      0.101540000000     0.860770000000     0.946010000000     0.0608911  
H216     H      0.175200000000     0.821720000000     0.947600000000     0.0501889  
H217     H      0.243050000000     0.874670000000     0.951300000000     0.070063   
H218     H      0.338450000000     0.897060000000     0.583080000000     0.0539546  
H219     H      0.327750000000     0.928230000000     0.658670000000     0.0598442  
H220     H      0.392670000000     0.835870000000     0.585120000000     0.0420027  
H221     H      0.430240000000     0.820740000000     0.658190000000     0.078379   
H222     H      0.356270000000     0.955870000000     0.583730000000     0.0617352  
H223     H      0.386530000000     0.948100000000     0.660650000000     0.05217    
H224     H      0.453110000000     0.878160000000     0.659530000000     0.0694443  
H225     H      0.689650000000     0.121640000000     0.163610000000     0.0754267  
H226     H      0.714260000000     0.101460000000     0.087730000000     0.0667545  
H227     H      0.622960000000     0.197650000000     0.153570000000     0.0673289  
H228     H      0.614960000000     0.210040000000     0.072870000000     0.0837181  
H229     H      0.747850000000     0.140800000000     0.154970000000     0.0610929  
H230     H      0.733330000000     0.159150000000     0.076810000000     0.0471301  
H231     H      0.675460000000     0.221220000000     0.066310000000     0.0669526  
H232     H      0.708500000000     0.139350000000     0.397230000000     0.0493414  
H233     H      0.668500000000     0.066740000000     0.403180000000     0.0622939  
H234     H      0.616100000000     0.220570000000     0.357070000000     0.0446868  
H235     H      0.608720000000     0.188220000000     0.425990000000     0.0582657  
H236     H      0.710990000000     0.109820000000     0.344300000000     0.0601854  
H237     H      0.633960000000     0.077410000000     0.354750000000     0.0639416  
H238     H      0.560200000000     0.164640000000     0.397450000000     0.0681913  
H239     H      0.632570000000     0.371820000000     0.139200000000     0.0740942  
H240     H      0.604580000000     0.359150000000     0.216140000000     0.0655485  
H241     H      0.700470000000     0.445570000000     0.142890000000     0.0458216  
H242     H      0.709330000000     0.463510000000     0.222570000000     0.0782548  
H243     H      0.574400000000     0.392270000000     0.145050000000     0.0713353  
H244     H      0.588630000000     0.418550000000     0.221450000000     0.0486778  
H245     H      0.649430000000     0.478000000000     0.228410000000     0.0709166  
H246     H      0.920770000000     0.071110000000     0.202720000000     0.0505795  
H247     H      0.847590000000     0.110470000000     0.194600000000     0.0599036  
H248     H      0.980960000000     0.126320000000     0.212310000000     0.0451693  
H249     H      0.959070000000     0.207080000000     0.205550000000     0.0824829  
H250     H      0.897220000000     0.058220000000     0.148200000000     0.0548573  
H251     H      0.864250000000     0.134640000000     0.141330000000     0.0506844  
H252     H      0.939300000000     0.198350000000     0.148520000000     0.0763536  
H253     H      0.979080000000     0.404940000000     0.334540000000     0.0454561  
H254     H      0.993840000000     0.383840000000     0.412210000000     0.062642   
H255     H      0.927190000000     0.469660000000     0.332170000000     0.0373491  
H256     H      0.897800000000     0.495710000000     0.405170000000     0.076098   
H257     H      0.958170000000     0.347960000000     0.344120000000     0.0689735  
H258     H      0.934830000000     0.366840000000     0.420850000000     0.0728118  
H259     H      0.871000000000     0.441040000000     0.415630000000     0.0771374  
H260     H      0.884950000000     0.118630000000     0.373180000000     0.0562855  
H261     H      0.863740000000     0.094910000000     0.448880000000     0.0599662  
H262     H      0.950430000000     0.192870000000     0.381890000000     0.0428645  
H263     H      0.963740000000     0.203240000000     0.462000000000     0.0805749  
H264     H      0.826710000000     0.136040000000     0.384770000000     0.0599035  
H265     H      0.844130000000     0.151640000000     0.463030000000     0.0489979  
H266     H      0.904060000000     0.215190000000     0.472880000000     0.0731386  
H267     H      0.614360000000     0.387710000000     0.393140000000     0.0490449  
H268     H      0.647430000000     0.311130000000     0.394270000000     0.0552457  
H269     H      0.692420000000     0.452480000000     0.401370000000     0.0429358  
H270     H      0.761550000000     0.405260000000     0.402240000000     0.0833438  
H271     H      0.601540000000     0.360770000000     0.446010000000     0.0608114  
H272     H      0.675200000000     0.321720000000     0.447600000000     0.0501193  
H273     H      0.743050000000     0.374670000000     0.451300000000     0.069977   
H274     H      0.838450000000     0.397060000000     0.083080000000     0.0538941  
H275     H      0.827760000000     0.428230000000     0.158670000000     0.0598291  
H276     H      0.892670000000     0.335870000000     0.085120000000     0.0419566  
H277     H      0.930240000000     0.320740000000     0.158190000000     0.0783506  
H278     H      0.856270000000     0.455870000000     0.083730000000     0.0616561  
H279     H      0.886530000000     0.448100000000     0.160650000000     0.052142   
H280     H      0.953110000000     0.378160000000     0.159540000000     0.0693977  
H281     H      0.689650000000     0.121640000000     0.663610000000     0.0754198  
H282     H      0.714260000000     0.101460000000     0.587740000000     0.0668024  
H283     H      0.622960000000     0.197650000000     0.653570000000     0.0673227  
H284     H      0.614960000000     0.210040000000     0.572870000000     0.0837803  
H285     H      0.747850000000     0.140800000000     0.654970000000     0.0611013  
H286     H      0.733330000000     0.159150000000     0.576810000000     0.0472063  
H287     H      0.675460000000     0.221220000000     0.566310000000     0.067032   
H288     H      0.708500000000     0.139350000000     0.897230000000     0.0493818  
H289     H      0.668500000000     0.066740000000     0.903190000000     0.0623065  
H290     H      0.616100000000     0.220570000000     0.857070000000     0.0447007  
H291     H      0.608720000000     0.188220000000     0.925990000000     0.0583213  
H292     H      0.710990000000     0.109820000000     0.844300000000     0.0601896  
H293     H      0.633960000000     0.077410000000     0.854750000000     0.0639351  
H294     H      0.560200000000     0.164640000000     0.897450000000     0.0682039  
H295     H      0.632570000000     0.371820000000     0.639190000000     0.0741101  
H296     H      0.604580000000     0.359150000000     0.716140000000     0.0655479  
H297     H      0.700470000000     0.445570000000     0.642890000000     0.0458392  
H298     H      0.709330000000     0.463510000000     0.722570000000     0.0782534  
H299     H      0.574400000000     0.392270000000     0.645050000000     0.071334   
H300     H      0.588630000000     0.418550000000     0.721450000000     0.0486724  
H301     H      0.649430000000     0.478000000000     0.728410000000     0.070912   
H302     H      0.920770000000     0.071110000000     0.702720000000     0.0505713  
H303     H      0.847590000000     0.110470000000     0.694600000000     0.059912   
H304     H      0.980960000000     0.126320000000     0.712320000000     0.0451685  
H305     H      0.959070000000     0.207080000000     0.705550000000     0.0824856  
H306     H      0.897220000000     0.058220000000     0.648200000000     0.0548696  
H307     H      0.864250000000     0.134640000000     0.641330000000     0.0507217  
H308     H      0.939300000000     0.198350000000     0.648520000000     0.0763784  
H309     H      0.979080000000     0.404940000000     0.834540000000     0.045452   
H310     H      0.993840000000     0.383840000000     0.912210000000     0.0626679  
H311     H      0.927190000000     0.469660000000     0.832170000000     0.0373463  
H312     H      0.897800000000     0.495710000000     0.905170000000     0.0761171  
H313     H      0.958170000000     0.347960000000     0.844120000000     0.0689735  
H314     H      0.934830000000     0.366840000000     0.920850000000     0.0728595  
H315     H      0.871000000000     0.441040000000     0.915630000000     0.0771804  
H316     H      0.884950000000     0.118630000000     0.873180000000     0.0562825  
H317     H      0.863740000000     0.094910000000     0.948880000000     0.0600166  
H318     H      0.950430000000     0.192870000000     0.881890000000     0.0428594  
H319     H      0.963740000000     0.203240000000     0.962000000000     0.0806406  
H320     H      0.826710000000     0.136040000000     0.884770000000     0.0599146  
H321     H      0.844130000000     0.151640000000     0.963030000000     0.0490817  
H322     H      0.904060000000     0.215190000000     0.972880000000     0.0732341  
H323     H      0.614360000000     0.387710000000     0.893150000000     0.0490507  
H324     H      0.647430000000     0.311130000000     0.894270000000     0.055264   
H325     H      0.692420000000     0.452480000000     0.901370000000     0.0429189  
H326     H      0.761550000000     0.405260000000     0.902240000000     0.0833687  
H327     H      0.601540000000     0.360770000000     0.946010000000     0.0608679  
H328     H      0.675200000000     0.321720000000     0.947600000000     0.0501984  
H329     H      0.743050000000     0.374670000000     0.951300000000     0.0700844  
H330     H      0.838450000000     0.397060000000     0.583080000000     0.0539517  
H331     H      0.827760000000     0.428230000000     0.658670000000     0.0598351  
H332     H      0.892670000000     0.335870000000     0.585120000000     0.0420074  
H333     H      0.930240000000     0.320740000000     0.658190000000     0.0783587  
H334     H      0.856270000000     0.455870000000     0.583730000000     0.0617068  
H335     H      0.886530000000     0.448100000000     0.660650000000     0.0521368  
H336     H      0.953110000000     0.378160000000     0.659530000000     0.0693994  
H337     H      0.689650000000     0.621640000000     0.163610000000     0.0754319  
H338     H      0.714260000000     0.601460000000     0.087730000000     0.0667718  
H339     H      0.622960000000     0.697650000000     0.153570000000     0.0673282  
H340     H      0.614960000000     0.710040000000     0.072870000000     0.0837239  
H341     H      0.747850000000     0.640800000000     0.154970000000     0.0610986  
H342     H      0.733330000000     0.659150000000     0.076810000000     0.0471343  
H343     H      0.675460000000     0.721210000000     0.066310000000     0.066961   
H344     H      0.708500000000     0.639350000000     0.397230000000     0.0493314  
H345     H      0.668500000000     0.566740000000     0.403180000000     0.0623366  
H346     H      0.616100000000     0.720570000000     0.357070000000     0.0446875  
H347     H      0.608720000000     0.688220000000     0.425990000000     0.0582711  
H348     H      0.710990000000     0.609820000000     0.344300000000     0.060186   
H349     H      0.633960000000     0.577410000000     0.354750000000     0.0639751  
H350     H      0.560200000000     0.664640000000     0.397450000000     0.0682018  
H351     H      0.632570000000     0.871820000000     0.139200000000     0.0740914  
H352     H      0.604580000000     0.859150000000     0.216140000000     0.065551   
H353     H      0.700470000000     0.945570000000     0.142890000000     0.0458167  
H354     H      0.709330000000     0.963500000000     0.222570000000     0.0783059  
H355     H      0.574400000000     0.892270000000     0.145050000000     0.0713388  
H356     H      0.588630000000     0.918550000000     0.221450000000     0.048695   
H357     H      0.649430000000     0.978000000000     0.228410000000     0.0709755  
H358     H      0.920770000000     0.571110000000     0.202720000000     0.0506279  
H359     H      0.847590000000     0.610470000000     0.194600000000     0.0599109  
H360     H      0.980960000000     0.626320000000     0.212310000000     0.045181   
H361     H      0.959070000000     0.707080000000     0.205550000000     0.0824826  
H362     H      0.897220000000     0.558220000000     0.148200000000     0.0549149  
H363     H      0.864250000000     0.634640000000     0.141330000000     0.0506842  
H364     H      0.939300000000     0.698350000000     0.148520000000     0.0763523  
H365     H      0.979080000000     0.904940000000     0.334540000000     0.045469   
H366     H      0.993840000000     0.883840000000     0.412210000000     0.0626363  
H367     H      0.927190000000     0.969670000000     0.332170000000     0.0373849  
H368     H      0.897800000000     0.995710000000     0.405170000000     0.0761514  
H369     H      0.958170000000     0.847960000000     0.344120000000     0.0689768  
H370     H      0.934830000000     0.866840000000     0.420850000000     0.072804   
H371     H      0.871000000000     0.941040000000     0.415630000000     0.0771539  
H372     H      0.884950000000     0.618630000000     0.373180000000     0.0562989  
H373     H      0.863740000000     0.594910000000     0.448880000000     0.0600099  
H374     H      0.950430000000     0.692870000000     0.381890000000     0.0428678  
H375     H      0.963740000000     0.703240000000     0.462000000000     0.0805748  
H376     H      0.826710000000     0.636040000000     0.384770000000     0.0599101  
H377     H      0.844130000000     0.651640000000     0.463030000000     0.0490145  
H378     H      0.904060000000     0.715190000000     0.472880000000     0.0731384  
H379     H      0.614360000000     0.887710000000     0.393140000000     0.0490489  
H380     H      0.647430000000     0.811130000000     0.394270000000     0.0552396  
H381     H      0.692420000000     0.952480000000     0.401370000000     0.0429625  
H382     H      0.761550000000     0.905270000000     0.402240000000     0.083343   
H383     H      0.601540000000     0.860770000000     0.446010000000     0.0608088  
H384     H      0.675200000000     0.821720000000     0.447600000000     0.0501136  
H385     H      0.743050000000     0.874670000000     0.451300000000     0.0699782  
H386     H      0.838450000000     0.897060000000     0.083080000000     0.0538965  
H387     H      0.827760000000     0.928230000000     0.158670000000     0.059849   
H388     H      0.892670000000     0.835870000000     0.085120000000     0.041955   
H389     H      0.930240000000     0.820740000000     0.158190000000     0.0783508  
H390     H      0.856270000000     0.955870000000     0.083730000000     0.0616829  
H391     H      0.886530000000     0.948100000000     0.160650000000     0.0521744  
H392     H      0.953110000000     0.878160000000     0.159540000000     0.0694051  
H393     H      0.689650000000     0.621640000000     0.663610000000     0.0754251  
H394     H      0.714260000000     0.601460000000     0.587740000000     0.0668197  
H395     H      0.622960000000     0.697650000000     0.653570000000     0.067322   
H396     H      0.614960000000     0.710040000000     0.572870000000     0.0837861  
H397     H      0.747850000000     0.640800000000     0.654970000000     0.061107   
H398     H      0.733330000000     0.659150000000     0.576810000000     0.0472106  
H399     H      0.675460000000     0.721210000000     0.566310000000     0.0670404  
H400     H      0.708500000000     0.639350000000     0.897230000000     0.0493718  
H401     H      0.668500000000     0.566740000000     0.903190000000     0.0623493  
H402     H      0.616100000000     0.720570000000     0.857070000000     0.0447014  
H403     H      0.608720000000     0.688220000000     0.925990000000     0.0583268  
H404     H      0.710990000000     0.609820000000     0.844300000000     0.0601903  
H405     H      0.633960000000     0.577410000000     0.854750000000     0.0639686  
H406     H      0.560200000000     0.664640000000     0.897450000000     0.0682144  
H407     H      0.632570000000     0.871820000000     0.639190000000     0.0741073  
H408     H      0.604580000000     0.859150000000     0.716140000000     0.0655503  
H409     H      0.700470000000     0.945570000000     0.642890000000     0.0458343  
H410     H      0.709330000000     0.963500000000     0.722570000000     0.0783045  
H411     H      0.574400000000     0.892270000000     0.645050000000     0.0713376  
H412     H      0.588630000000     0.918550000000     0.721450000000     0.0486896  
H413     H      0.649430000000     0.978000000000     0.728410000000     0.0709708  
H414     H      0.920770000000     0.571110000000     0.702720000000     0.0506197  
H415     H      0.847590000000     0.610470000000     0.694600000000     0.0599192  
H416     H      0.980960000000     0.626320000000     0.712320000000     0.0451802  
H417     H      0.959070000000     0.707080000000     0.705550000000     0.0824853  
H418     H      0.897220000000     0.558220000000     0.648200000000     0.0549272  
H419     H      0.864250000000     0.634640000000     0.641330000000     0.0507215  
H420     H      0.939300000000     0.698350000000     0.648520000000     0.0763772  
H421     H      0.979080000000     0.904940000000     0.834540000000     0.0454648  
H422     H      0.993840000000     0.883840000000     0.912210000000     0.0626622  
H423     H      0.927190000000     0.969670000000     0.832170000000     0.037382   
H424     H      0.897800000000     0.995710000000     0.905170000000     0.0761705  
H425     H      0.958170000000     0.847960000000     0.844120000000     0.0689768  
H426     H      0.934830000000     0.866840000000     0.920850000000     0.0728517  
H427     H      0.871000000000     0.941040000000     0.915630000000     0.0771969  
H428     H      0.884950000000     0.618630000000     0.873180000000     0.0562959  
H429     H      0.863740000000     0.594910000000     0.948880000000     0.0600604  
H430     H      0.950430000000     0.692870000000     0.881890000000     0.0428627  
H431     H      0.963740000000     0.703240000000     0.962000000000     0.0806406  
H432     H      0.826710000000     0.636040000000     0.884770000000     0.0599212  
H433     H      0.844130000000     0.651640000000     0.963030000000     0.0490983  
H434     H      0.904060000000     0.715190000000     0.972880000000     0.0732339  
H435     H      0.614360000000     0.887710000000     0.893150000000     0.0490546  
H436     H      0.647430000000     0.811130000000     0.894270000000     0.0552579  
H437     H      0.692420000000     0.952480000000     0.901370000000     0.0429456  
H438     H      0.761550000000     0.905270000000     0.902240000000     0.083368   
H439     H      0.601540000000     0.860770000000     0.946010000000     0.0608653  
H440     H      0.675200000000     0.821720000000     0.947600000000     0.0501927  
H441     H      0.743050000000     0.874670000000     0.951300000000     0.0700856  
H442     H      0.838450000000     0.897060000000     0.583080000000     0.053954   
H443     H      0.827760000000     0.928230000000     0.658670000000     0.0598551  
H444     H      0.892670000000     0.835870000000     0.585120000000     0.0420057  
H445     H      0.930240000000     0.820740000000     0.658190000000     0.0783589  
H446     H      0.856270000000     0.955870000000     0.583730000000     0.0617336  
H447     H      0.886530000000     0.948100000000     0.660650000000     0.0521692  
H448     H      0.953110000000     0.878160000000     0.659530000000     0.0694068  
N1       N      0.195490000000     0.193820000000     0.158680000000    -0.16241    
N2       N      0.160560000000     0.152120000000     0.079500000000    -0.156405   
N3       N      0.149990000000     0.263810000000     0.143020000000    -0.0172626  
N4       N      0.167340000000     0.169170000000     0.345960000000    -0.163696   
N5       N      0.115110000000     0.117840000000     0.411190000000    -0.154321   
N6       N      0.088200000000     0.169020000000     0.315410000000    -0.0283531  
N7       N      0.127640000000     0.444310000000     0.138340000000    -0.163584   
N8       N      0.160980000000     0.407480000000     0.220210000000    -0.158488   
N9       N      0.176150000000     0.513420000000     0.148610000000    -0.0179314  
N10      N      0.455710000000     0.104930000000     0.149210000000    -0.17001    
N11      N      0.397920000000     0.165370000000     0.197180000000    -0.157468   
N12      N      0.524530000000     0.154490000000     0.162270000000    -0.0226233  
N13      N      0.405840000000     0.400980000000     0.337260000000    -0.16665    
N14      N      0.443760000000     0.438680000000     0.417060000000    -0.15683    
N15      N      0.354470000000     0.468740000000     0.326790000000    -0.0199344  
N16      N      0.377530000000     0.190440000000     0.381260000000    -0.164285   
N17      N      0.416860000000     0.146080000000     0.457960000000    -0.157115   
N18      N      0.425140000000     0.259170000000     0.395770000000    -0.0180157  
N19      N      0.151420000000     0.416160000000     0.448190000000    -0.164194   
N20      N      0.205510000000     0.357670000000     0.393100000000    -0.158144   
N21      N      0.220320000000     0.462610000000     0.466370000000    -0.0186491  
N22      N      0.411470000000     0.405360000000     0.080760000000    -0.167643   
N23      N      0.380480000000     0.375890000000     0.165800000000    -0.15882    
N24      N      0.464750000000     0.338840000000     0.073350000000    -0.0193317  
N25      N      0.195490000000     0.193820000000     0.658680000000    -0.162411   
N26      N      0.160560000000     0.152120000000     0.579500000000    -0.156381   
N27      N      0.149990000000     0.263810000000     0.643020000000    -0.017271   
N28      N      0.167340000000     0.169170000000     0.845960000000    -0.163686   
N29      N      0.115110000000     0.117840000000     0.911190000000    -0.154298   
N30      N      0.088200000000     0.169020000000     0.815410000000    -0.0283421  
N31      N      0.127640000000     0.444310000000     0.638340000000    -0.16359    
N32      N      0.160980000000     0.407480000000     0.720210000000    -0.158488   
N33      N      0.176150000000     0.513420000000     0.648610000000    -0.0179267  
N34      N      0.455710000000     0.104930000000     0.649210000000    -0.170026   
N35      N      0.397920000000     0.165370000000     0.697190000000    -0.157492   
N36      N      0.524530000000     0.154490000000     0.662270000000    -0.0226327  
N37      N      0.405840000000     0.400980000000     0.837260000000    -0.166631   
N38      N      0.443760000000     0.438680000000     0.917050000000    -0.15677    
N39      N      0.354470000000     0.468740000000     0.826790000000    -0.0199372  
N40      N      0.377530000000     0.190440000000     0.881260000000    -0.164285   
N41      N      0.416860000000     0.146080000000     0.957960000000    -0.157073   
N42      N      0.425140000000     0.259170000000     0.895770000000    -0.0180344  
N43      N      0.151420000000     0.416160000000     0.948190000000    -0.16417    
N44      N      0.205510000000     0.357670000000     0.893090000000    -0.158181   
N45      N      0.220320000000     0.462610000000     0.966370000000    -0.0184581  
N46      N      0.411470000000     0.405360000000     0.580760000000    -0.167622   
N47      N      0.380480000000     0.375890000000     0.665800000000    -0.158816   
N48      N      0.464750000000     0.338840000000     0.573350000000    -0.0192986  
N49      N      0.195490000000     0.693820000000     0.158680000000    -0.162411   
N50      N      0.160560000000     0.652120000000     0.079500000000    -0.156401   
N51      N      0.149990000000     0.763810000000     0.143020000000    -0.0172637  
N52      N      0.167340000000     0.669170000000     0.345960000000    -0.163717   
N53      N      0.115110000000     0.617840000000     0.411190000000    -0.154309   
N54      N      0.088200000000     0.669030000000     0.315410000000    -0.028372   
N55      N      0.127640000000     0.944310000000     0.138340000000    -0.163583   
N56      N      0.160980000000     0.907480000000     0.220210000000    -0.158481   
N57      N      0.176150000000     0.013420000000     0.148610000000    -0.0180102  
N58      N      0.455710000000     0.604930000000     0.149210000000    -0.169992   
N59      N      0.397920000000     0.665370000000     0.197180000000    -0.15747    
N60      N      0.524530000000     0.654490000000     0.162270000000    -0.0226201  
N61      N      0.405840000000     0.900980000000     0.337260000000    -0.166665   
N62      N      0.443760000000     0.938670000000     0.417060000000    -0.156799   
N63      N      0.354470000000     0.968740000000     0.326790000000    -0.0198687  
N64      N      0.377530000000     0.690440000000     0.381260000000    -0.164286   
N65      N      0.416860000000     0.646080000000     0.457960000000    -0.157104   
N66      N      0.425140000000     0.759170000000     0.395770000000    -0.0180161  
N67      N      0.151420000000     0.916150000000     0.448190000000    -0.164153   
N68      N      0.205510000000     0.857660000000     0.393100000000    -0.158186   
N69      N      0.220320000000     0.962610000000     0.466370000000    -0.0186365  
N70      N      0.411470000000     0.905360000000     0.080760000000    -0.167661   
N71      N      0.380480000000     0.875890000000     0.165800000000    -0.158816   
N72      N      0.464750000000     0.838840000000     0.073350000000    -0.0193336  
N73      N      0.195490000000     0.693820000000     0.658680000000    -0.162411   
N74      N      0.160560000000     0.652120000000     0.579500000000    -0.156377   
N75      N      0.149990000000     0.763810000000     0.643020000000    -0.017272   
N76      N      0.167340000000     0.669170000000     0.845960000000    -0.163707   
N77      N      0.115110000000     0.617840000000     0.911190000000    -0.154286   
N78      N      0.088200000000     0.669030000000     0.815410000000    -0.028361   
N79      N      0.127640000000     0.944310000000     0.638340000000    -0.163589   
N80      N      0.160980000000     0.907480000000     0.720210000000    -0.158481   
N81      N      0.176150000000     0.013420000000     0.648610000000    -0.0180056  
N82      N      0.455710000000     0.604930000000     0.649210000000    -0.170007   
N83      N      0.397920000000     0.665370000000     0.697190000000    -0.157495   
N84      N      0.524530000000     0.654490000000     0.662270000000    -0.0226295  
N85      N      0.405840000000     0.900980000000     0.837260000000    -0.166647   
N86      N      0.443760000000     0.938670000000     0.917050000000    -0.156739   
N87      N      0.354470000000     0.968740000000     0.826790000000    -0.0198715  
N88      N      0.377530000000     0.690440000000     0.881260000000    -0.164286   
N89      N      0.416860000000     0.646080000000     0.957960000000    -0.157062   
N90      N      0.425140000000     0.759170000000     0.895770000000    -0.0180347  
N91      N      0.151420000000     0.916150000000     0.948190000000    -0.164129   
N92      N      0.205510000000     0.857660000000     0.893090000000    -0.158223   
N93      N      0.220320000000     0.962610000000     0.966370000000    -0.0184455  
N94      N      0.411470000000     0.905360000000     0.580760000000    -0.167641   
N95      N      0.380480000000     0.875890000000     0.665800000000    -0.158813   
N96      N      0.464750000000     0.838840000000     0.573350000000    -0.0193006  
N97      N      0.695490000000     0.193820000000     0.158680000000    -0.16241    
N98      N      0.660560000000     0.152120000000     0.079500000000    -0.156411   
N99      N      0.649990000000     0.263810000000     0.143020000000    -0.0172722  
N100     N      0.667340000000     0.169170000000     0.345960000000    -0.163713   
N101     N      0.615110000000     0.117840000000     0.411190000000    -0.154328   
N102     N      0.588200000000     0.169020000000     0.315410000000    -0.0283659  
N103     N      0.627640000000     0.444310000000     0.138340000000    -0.163586   
N104     N      0.660980000000     0.407480000000     0.220210000000    -0.158496   
N105     N      0.676150000000     0.513420000000     0.148610000000    -0.0179289  
N106     N      0.955710000000     0.104930000000     0.149210000000    -0.169986   
N107     N      0.897920000000     0.165370000000     0.197180000000    -0.157473   
N108     N      0.024530000000     0.154490000000     0.162270000000    -0.0225645  
N109     N      0.905840000000     0.400980000000     0.337260000000    -0.166654   
N110     N      0.943760000000     0.438680000000     0.417060000000    -0.156811   
N111     N      0.854470000000     0.468740000000     0.326790000000    -0.0199353  
N112     N      0.877530000000     0.190440000000     0.381260000000    -0.164286   
N113     N      0.916860000000     0.146080000000     0.457960000000    -0.1571     
N114     N      0.925140000000     0.259170000000     0.395770000000    -0.018016   
N115     N      0.651420000000     0.416160000000     0.448190000000    -0.164224   
N116     N      0.705510000000     0.357670000000     0.393100000000    -0.158131   
N117     N      0.720320000000     0.462610000000     0.466370000000    -0.0186531  
N118     N      0.911470000000     0.405360000000     0.080760000000    -0.167648   
N119     N      0.880480000000     0.375890000000     0.165800000000    -0.158817   
N120     N      0.964750000000     0.338840000000     0.073350000000    -0.0193939  
N121     N      0.695490000000     0.193820000000     0.658680000000    -0.162411   
N122     N      0.660560000000     0.152120000000     0.579500000000    -0.156387   
N123     N      0.649990000000     0.263810000000     0.643020000000    -0.0172805  
N124     N      0.667340000000     0.169170000000     0.845960000000    -0.163703   
N125     N      0.615110000000     0.117840000000     0.911190000000    -0.154304   
N126     N      0.588200000000     0.169020000000     0.815410000000    -0.0283549  
N127     N      0.627640000000     0.444310000000     0.638340000000    -0.163592   
N128     N      0.660980000000     0.407480000000     0.720210000000    -0.158496   
N129     N      0.676150000000     0.513420000000     0.648610000000    -0.0179243  
N130     N      0.955710000000     0.104930000000     0.649210000000    -0.170002   
N131     N      0.897920000000     0.165370000000     0.697190000000    -0.157497   
N132     N      0.024530000000     0.154490000000     0.662270000000    -0.0225739  
N133     N      0.905840000000     0.400980000000     0.837260000000    -0.166635   
N134     N      0.943760000000     0.438680000000     0.917050000000    -0.156751   
N135     N      0.854470000000     0.468740000000     0.826790000000    -0.0199382  
N136     N      0.877530000000     0.190440000000     0.881260000000    -0.164287   
N137     N      0.916860000000     0.146080000000     0.957960000000    -0.157058   
N138     N      0.925140000000     0.259170000000     0.895770000000    -0.0180346  
N139     N      0.651420000000     0.416160000000     0.948190000000    -0.1642     
N140     N      0.705510000000     0.357670000000     0.893090000000    -0.158168   
N141     N      0.720320000000     0.462610000000     0.966370000000    -0.0184621  
N142     N      0.911470000000     0.405360000000     0.580760000000    -0.167628   
N143     N      0.880480000000     0.375890000000     0.665800000000    -0.158814   
N144     N      0.964750000000     0.338840000000     0.573350000000    -0.0193609  
N145     N      0.695490000000     0.693820000000     0.158680000000    -0.162411   
N146     N      0.660560000000     0.652120000000     0.079500000000    -0.156407   
N147     N      0.649990000000     0.763810000000     0.143020000000    -0.0172733  
N148     N      0.667340000000     0.669170000000     0.345960000000    -0.163734   
N149     N      0.615110000000     0.617840000000     0.411190000000    -0.154316   
N150     N      0.588200000000     0.669030000000     0.315410000000    -0.0283848  
N151     N      0.627640000000     0.944310000000     0.138340000000    -0.163585   
N152     N      0.660980000000     0.907480000000     0.220210000000    -0.158488   
N153     N      0.676150000000     0.013420000000     0.148610000000    -0.0180078  
N154     N      0.955710000000     0.604930000000     0.149210000000    -0.169968   
N155     N      0.897920000000     0.665370000000     0.197180000000    -0.157475   
N156     N      0.024530000000     0.654490000000     0.162270000000    -0.0225614  
N157     N      0.905840000000     0.900980000000     0.337260000000    -0.166669   
N158     N      0.943760000000     0.938670000000     0.417060000000    -0.15678    
N159     N      0.854470000000     0.968740000000     0.326790000000    -0.0198696  
N160     N      0.877530000000     0.690440000000     0.381260000000    -0.164288   
N161     N      0.916860000000     0.646080000000     0.457960000000    -0.157089   
N162     N      0.925140000000     0.759170000000     0.395770000000    -0.0180163  
N163     N      0.651420000000     0.916150000000     0.448190000000    -0.164183   
N164     N      0.705510000000     0.857660000000     0.393100000000    -0.158173   
N165     N      0.720320000000     0.962610000000     0.466370000000    -0.0186405  
N166     N      0.911470000000     0.905360000000     0.080760000000    -0.167666   
N167     N      0.880480000000     0.875890000000     0.165800000000    -0.158814   
N168     N      0.964750000000     0.838840000000     0.073350000000    -0.0193959  
N169     N      0.695490000000     0.693820000000     0.658680000000    -0.162411   
N170     N      0.660560000000     0.652120000000     0.579500000000    -0.156383   
N171     N      0.649990000000     0.763810000000     0.643020000000    -0.0172816  
N172     N      0.667340000000     0.669170000000     0.845960000000    -0.163724   
N173     N      0.615110000000     0.617840000000     0.911190000000    -0.154293   
N174     N      0.588200000000     0.669030000000     0.815410000000    -0.0283739  
N175     N      0.627640000000     0.944310000000     0.638340000000    -0.163591   
N176     N      0.660980000000     0.907480000000     0.720210000000    -0.158488   
N177     N      0.676150000000     0.013420000000     0.648610000000    -0.0180032  
N178     N      0.955710000000     0.604930000000     0.649210000000    -0.169983   
N179     N      0.897920000000     0.665370000000     0.697190000000    -0.1575     
N180     N      0.024530000000     0.654490000000     0.662270000000    -0.0225707  
N181     N      0.905840000000     0.900980000000     0.837260000000    -0.166651   
N182     N      0.943760000000     0.938670000000     0.917050000000    -0.15672    
N183     N      0.854470000000     0.968740000000     0.826790000000    -0.0198725  
N184     N      0.877530000000     0.690440000000     0.881260000000    -0.164288   
N185     N      0.916860000000     0.646080000000     0.957960000000    -0.157047   
N186     N      0.925140000000     0.759170000000     0.895770000000    -0.0180349  
N187     N      0.651420000000     0.916150000000     0.948190000000    -0.16416    
N188     N      0.705510000000     0.857660000000     0.893090000000    -0.15821    
N189     N      0.720320000000     0.962610000000     0.966370000000    -0.0184495  
N190     N      0.911470000000     0.905360000000     0.580760000000    -0.167646   
N191     N      0.880480000000     0.875890000000     0.665800000000    -0.158811   
N192     N      0.964750000000     0.838840000000     0.573350000000    -0.0193628  
O1       O      0.500070000000     0.439750000000     0.471540000000    -0.363017   
O2       O      0.066260000000     0.118860000000     0.471790000000    -0.368657   
O3       O      0.432660000000     0.076370000000     0.490420000000    -0.365024   
O4       O      0.136830000000     0.483710000000     0.485680000000    -0.34928    
O5       O      0.485360000000     0.131890000000     0.494490000000    -0.362115   
O6       O      0.083890000000     0.428490000000     0.487610000000    -0.361799   
O7       O      0.116550000000     0.061370000000     0.464980000000    -0.372967   
O8       O      0.447460000000     0.495620000000     0.470190000000    -0.36766    
O9       O      0.072330000000     0.442570000000     0.082550000000    -0.358777   
O10      O      0.505800000000     0.110480000000     0.089380000000    -0.350136   
O11      O      0.429030000000     0.476830000000     0.053590000000    -0.358882   
O12      O      0.141830000000     0.080530000000     0.053280000000    -0.348997   
O13      O      0.088290000000     0.135470000000     0.052530000000    -0.347436   
O14      O      0.483500000000     0.423080000000     0.052730000000    -0.339792   
O15      O      0.126990000000     0.495980000000     0.079570000000    -0.343755   
O16      O      0.449610000000     0.058760000000     0.086750000000    -0.368184   
O17      O      0.535690000000     0.528770000000     0.545980000000    -0.581807   
O18      O      0.322590000000     0.373350000000     0.218780000000    -0.357556   
O19      O      0.248660000000     0.193410000000     0.216540000000    -0.357104   
O20      O      0.386790000000     0.231830000000     0.236920000000    -0.357741   
O21      O      0.178180000000     0.335190000000     0.244960000000    -0.355768   
O22      O      0.330610000000     0.179630000000     0.235190000000    -0.358659   
O23      O      0.232610000000     0.389180000000     0.247870000000    -0.359896   
O24      O      0.195250000000     0.248150000000     0.215080000000    -0.343768   
O25      O      0.377000000000     0.319280000000     0.219020000000    -0.361258   
O26      O      0.255830000000     0.363060000000     0.333500000000    -0.369584   
O27      O      0.319950000000     0.193090000000     0.327400000000    -0.367384   
O28      O      0.387970000000     0.330490000000     0.307310000000    -0.355965   
O29      O      0.180130000000     0.234520000000     0.305000000000    -0.352485   
O30      O      0.237440000000     0.184140000000     0.313190000000    -0.367933   
O31      O      0.335680000000     0.386120000000     0.303660000000    -0.343145   
O32      O      0.198940000000     0.311630000000     0.330800000000    -0.37321    
O33      O      0.375050000000     0.246190000000     0.326210000000    -0.356982   
O34      O      0.284570000000     0.282600000000     0.252860000000    -0.587634   
O35      O      0.183900000000     0.284760000000     0.120470000000    -0.103663   
O36      O      0.109810000000     0.278920000000     0.126640000000    -0.0923353  
O37      O      0.101610000000     0.128960000000     0.298210000000    -0.0908742  
O38      O      0.091860000000     0.200150000000     0.282640000000    -0.0741613  
O39      O      0.143260000000     0.537360000000     0.169680000000    -0.0967969  
O40      O      0.217010000000     0.528080000000     0.163770000000    -0.111285   
O41      O      0.522130000000     0.188570000000     0.132260000000    -0.0808169  
O42      O      0.548210000000     0.170250000000     0.197630000000    -0.0843424  
O43      O      0.318270000000     0.460370000000     0.353520000000    -0.0878837  
O44      O      0.358230000000     0.514170000000     0.323130000000    -0.107534   
O45      O      0.392900000000     0.279960000000     0.420660000000    -0.106079   
O46      O      0.466430000000     0.273300000000     0.410300000000    -0.110669   
O47      O      0.230260000000     0.439010000000     0.503720000000    -0.0962296  
O48      O      0.259900000000     0.478950000000     0.449740000000    -0.0999069  
O49      O      0.502220000000     0.347190000000     0.098390000000    -0.085881   
O50      O      0.460530000000     0.293400000000     0.070410000000    -0.0950936  
O51      O      0.500070000000     0.439750000000     0.971530000000    -0.362749   
O52      O      0.066260000000     0.118860000000     0.971790000000    -0.368372   
O53      O      0.432660000000     0.076370000000     0.990420000000    -0.364743   
O54      O      0.136830000000     0.483710000000     0.985680000000    -0.348964   
O55      O      0.485360000000     0.131890000000     0.994490000000    -0.361827   
O56      O      0.083890000000     0.428490000000     0.987610000000    -0.361476   
O57      O      0.116550000000     0.061370000000     0.964990000000    -0.372734   
O58      O      0.447460000000     0.495620000000     0.970180000000    -0.367395   
O59      O      0.072330000000     0.442570000000     0.582550000000    -0.35881    
O60      O      0.505800000000     0.110480000000     0.589380000000    -0.350192   
O61      O      0.429030000000     0.476830000000     0.553590000000    -0.358844   
O62      O      0.141830000000     0.080530000000     0.553280000000    -0.348975   
O63      O      0.088290000000     0.135470000000     0.552530000000    -0.347403   
O64      O      0.483500000000     0.423080000000     0.552730000000    -0.339759   
O65      O      0.126990000000     0.495980000000     0.579570000000    -0.343772   
O66      O      0.449610000000     0.058760000000     0.586760000000    -0.368216   
O67      O      0.535690000000     0.528770000000     0.045980000000    -0.581641   
O68      O      0.322590000000     0.373350000000     0.718780000000    -0.357558   
O69      O      0.248660000000     0.193410000000     0.716540000000    -0.357103   
O70      O      0.386790000000     0.231830000000     0.736920000000    -0.357753   
O71      O      0.178180000000     0.335190000000     0.744960000000    -0.355769   
O72      O      0.330610000000     0.179630000000     0.735190000000    -0.35867    
O73      O      0.232610000000     0.389180000000     0.747870000000    -0.359897   
O74      O      0.195250000000     0.248150000000     0.715080000000    -0.34377    
O75      O      0.377000000000     0.319280000000     0.719020000000    -0.36126    
O76      O      0.255830000000     0.363060000000     0.833500000000    -0.369597   
O77      O      0.319950000000     0.193090000000     0.827400000000    -0.367381   
O78      O      0.387970000000     0.330490000000     0.807310000000    -0.355992   
O79      O      0.180130000000     0.234520000000     0.805000000000    -0.352483   
O80      O      0.237440000000     0.184140000000     0.813190000000    -0.367931   
O81      O      0.335680000000     0.386120000000     0.803660000000    -0.343177   
O82      O      0.198940000000     0.311630000000     0.830800000000    -0.373224   
O83      O      0.375050000000     0.246190000000     0.826210000000    -0.356982   
O84      O      0.284570000000     0.282600000000     0.752860000000    -0.587633   
O85      O      0.183900000000     0.284760000000     0.620470000000    -0.103613   
O86      O      0.109810000000     0.278920000000     0.626640000000    -0.0923014  
O87      O      0.101610000000     0.128960000000     0.798210000000    -0.0908805  
O88      O      0.091860000000     0.200150000000     0.782640000000    -0.0741655  
O89      O      0.143260000000     0.537360000000     0.669680000000    -0.0968106  
O90      O      0.217010000000     0.528080000000     0.663770000000    -0.111275   
O91      O      0.522130000000     0.188570000000     0.632260000000    -0.0807877  
O92      O      0.548210000000     0.170250000000     0.697630000000    -0.0843494  
O93      O      0.318270000000     0.460370000000     0.853520000000    -0.0878734  
O94      O      0.358230000000     0.514170000000     0.823130000000    -0.107535   
O95      O      0.392900000000     0.279960000000     0.920670000000    -0.106014   
O96      O      0.466430000000     0.273300000000     0.910300000000    -0.11062    
O97      O      0.230260000000     0.439010000000     0.003720000000    -0.0966296  
O98      O      0.259900000000     0.478950000000     0.949740000000    -0.0998048  
O99      O      0.502220000000     0.347190000000     0.598390000000    -0.0858513  
O100     O      0.460530000000     0.293400000000     0.570410000000    -0.0949782  
O101     O      0.500070000000     0.939750000000     0.471540000000    -0.362991   
O102     O      0.066260000000     0.618860000000     0.471790000000    -0.368644   
O103     O      0.432660000000     0.576370000000     0.490420000000    -0.365008   
O104     O      0.136830000000     0.983710000000     0.485680000000    -0.349165   
O105     O      0.485360000000     0.631890000000     0.494490000000    -0.362103   
O106     O      0.083890000000     0.928490000000     0.487610000000    -0.361775   
O107     O      0.116550000000     0.561370000000     0.464980000000    -0.372945   
O108     O      0.447460000000     0.995620000000     0.470190000000    -0.367544   
O109     O      0.072330000000     0.942570000000     0.082550000000    -0.358765   
O110     O      0.505800000000     0.610480000000     0.089380000000    -0.350129   
O111     O      0.429030000000     0.976820000000     0.053590000000    -0.35885    
O112     O      0.141830000000     0.580530000000     0.053280000000    -0.348992   
O113     O      0.088290000000     0.635470000000     0.052530000000    -0.347427   
O114     O      0.483500000000     0.923080000000     0.052730000000    -0.339823   
O115     O      0.126990000000     0.995980000000     0.079570000000    -0.343634   
O116     O      0.449610000000     0.558760000000     0.086750000000    -0.368169   
O117     O      0.535690000000     0.028780000000     0.545980000000    -0.581849   
O118     O      0.322590000000     0.873350000000     0.218780000000    -0.357551   
O119     O      0.248660000000     0.693410000000     0.216540000000    -0.357101   
O120     O      0.386790000000     0.731830000000     0.236920000000    -0.357741   
O121     O      0.178180000000     0.835190000000     0.244960000000    -0.355762   
O122     O      0.330610000000     0.679630000000     0.235190000000    -0.358655   
O123     O      0.232610000000     0.889180000000     0.247870000000    -0.359888   
O124     O      0.195250000000     0.748150000000     0.215080000000    -0.343767   
O125     O      0.377000000000     0.819280000000     0.219020000000    -0.361257   
O126     O      0.255830000000     0.863060000000     0.333500000000    -0.36962    
O127     O      0.319950000000     0.693090000000     0.327400000000    -0.367382   
O128     O      0.387970000000     0.830490000000     0.307310000000    -0.355966   
O129     O      0.180130000000     0.734520000000     0.305000000000    -0.352493   
O130     O      0.237440000000     0.684140000000     0.313190000000    -0.367932   
O131     O      0.335680000000     0.886120000000     0.303660000000    -0.343142   
O132     O      0.198940000000     0.811640000000     0.330800000000    -0.373276   
O133     O      0.375050000000     0.746190000000     0.326210000000    -0.356983   
O134     O      0.284570000000     0.782600000000     0.252860000000    -0.587636   
O135     O      0.183900000000     0.784760000000     0.120470000000    -0.103662   
O136     O      0.109810000000     0.778920000000     0.126640000000    -0.0923361  
O137     O      0.101610000000     0.628960000000     0.298210000000    -0.0908598  
O138     O      0.091860000000     0.700150000000     0.282640000000    -0.0741528  
O139     O      0.143260000000     0.037360000000     0.169680000000    -0.0968563  
O140     O      0.217010000000     0.028080000000     0.163770000000    -0.111348   
O141     O      0.522130000000     0.688570000000     0.132260000000    -0.0808178  
O142     O      0.548210000000     0.670250000000     0.197630000000    -0.0843378  
O143     O      0.318270000000     0.960370000000     0.353520000000    -0.0878516  
O144     O      0.358230000000     0.014170000000     0.323130000000    -0.107678   
O145     O      0.392900000000     0.779960000000     0.420660000000    -0.106081   
O146     O      0.466430000000     0.773300000000     0.410300000000    -0.11067    
O147     O      0.230260000000     0.939010000000     0.503720000000    -0.0962125  
O148     O      0.259900000000     0.978950000000     0.449740000000    -0.0998607  
O149     O      0.502220000000     0.847190000000     0.098390000000    -0.0858808  
O150     O      0.460530000000     0.793400000000     0.070410000000    -0.0950954  
O151     O      0.500070000000     0.939750000000     0.971530000000    -0.362724   
O152     O      0.066260000000     0.618860000000     0.971790000000    -0.368358   
O153     O      0.432660000000     0.576370000000     0.990420000000    -0.364726   
O154     O      0.136830000000     0.983710000000     0.985680000000    -0.34885    
O155     O      0.485360000000     0.631890000000     0.994490000000    -0.361815   
O156     O      0.083890000000     0.928490000000     0.987610000000    -0.361453   
O157     O      0.116550000000     0.561370000000     0.964990000000    -0.372713   
O158     O      0.447460000000     0.995620000000     0.970180000000    -0.367279   
O159     O      0.072330000000     0.942570000000     0.582550000000    -0.358797   
O160     O      0.505800000000     0.610480000000     0.589380000000    -0.350185   
O161     O      0.429030000000     0.976820000000     0.553590000000    -0.358813   
O162     O      0.141830000000     0.580530000000     0.553280000000    -0.34897    
O163     O      0.088290000000     0.635470000000     0.552530000000    -0.347394   
O164     O      0.483500000000     0.923080000000     0.552730000000    -0.339789   
O165     O      0.126990000000     0.995980000000     0.579570000000    -0.343651   
O166     O      0.449610000000     0.558760000000     0.586760000000    -0.3682     
O167     O      0.535690000000     0.028780000000     0.045980000000    -0.581683   
O168     O      0.322590000000     0.873350000000     0.718780000000    -0.357553   
O169     O      0.248660000000     0.693410000000     0.716540000000    -0.3571     
O170     O      0.386790000000     0.731830000000     0.736920000000    -0.357753   
O171     O      0.178180000000     0.835190000000     0.744960000000    -0.355763   
O172     O      0.330610000000     0.679630000000     0.735190000000    -0.358667   
O173     O      0.232610000000     0.889180000000     0.747870000000    -0.35989    
O174     O      0.195250000000     0.748150000000     0.715080000000    -0.343769   
O175     O      0.377000000000     0.819280000000     0.719020000000    -0.36126    
O176     O      0.255830000000     0.863060000000     0.833500000000    -0.369632   
O177     O      0.319950000000     0.693090000000     0.827400000000    -0.367379   
O178     O      0.387970000000     0.830490000000     0.807310000000    -0.355993   
O179     O      0.180130000000     0.734520000000     0.805000000000    -0.352491   
O180     O      0.237440000000     0.684140000000     0.813190000000    -0.36793    
O181     O      0.335680000000     0.886120000000     0.803660000000    -0.343175   
O182     O      0.198940000000     0.811640000000     0.830800000000    -0.37329    
O183     O      0.375050000000     0.746190000000     0.826210000000    -0.356983   
O184     O      0.284570000000     0.782600000000     0.752860000000    -0.587635   
O185     O      0.183900000000     0.784760000000     0.620470000000    -0.103613   
O186     O      0.109810000000     0.778920000000     0.626640000000    -0.0923022  
O187     O      0.101610000000     0.628960000000     0.798210000000    -0.090866   
O188     O      0.091860000000     0.700150000000     0.782640000000    -0.074157   
O189     O      0.143260000000     0.037360000000     0.669680000000    -0.0968701  
O190     O      0.217010000000     0.028080000000     0.663770000000    -0.111339   
O191     O      0.522130000000     0.688570000000     0.632260000000    -0.0807886  
O192     O      0.548210000000     0.670250000000     0.697630000000    -0.0843448  
O193     O      0.318270000000     0.960370000000     0.853520000000    -0.0878413  
O194     O      0.358230000000     0.014170000000     0.823130000000    -0.107679   
O195     O      0.392900000000     0.779960000000     0.920670000000    -0.106015   
O196     O      0.466430000000     0.773300000000     0.910300000000    -0.110621   
O197     O      0.230260000000     0.939010000000     0.003720000000    -0.0966125  
O198     O      0.259900000000     0.978950000000     0.949740000000    -0.0997586  
O199     O      0.502220000000     0.847190000000     0.598390000000    -0.0858511  
O200     O      0.460530000000     0.793400000000     0.570410000000    -0.09498    
O201     O      0.000070000000     0.439750000000     0.471540000000    -0.362849   
O202     O      0.566260000000     0.118860000000     0.471790000000    -0.368713   
O203     O      0.932660000000     0.076370000000     0.490420000000    -0.364993   
O204     O      0.636830000000     0.483710000000     0.485680000000    -0.349289   
O205     O      0.985370000000     0.131890000000     0.494490000000    -0.362189   
O206     O      0.583890000000     0.428490000000     0.487610000000    -0.361721   
O207     O      0.616550000000     0.061370000000     0.464980000000    -0.372974   
O208     O      0.947460000000     0.495620000000     0.470190000000    -0.36762    
O209     O      0.572330000000     0.442570000000     0.082550000000    -0.358789   
O210     O      0.005800000000     0.110480000000     0.089380000000    -0.35002    
O211     O      0.929030000000     0.476830000000     0.053590000000    -0.358876   
O212     O      0.641830000000     0.080530000000     0.053280000000    -0.349001   
O213     O      0.588290000000     0.135470000000     0.052530000000    -0.347472   
O214     O      0.983500000000     0.423080000000     0.052730000000    -0.339897   
O215     O      0.626990000000     0.495980000000     0.079570000000    -0.343752   
O216     O      0.949610000000     0.058760000000     0.086750000000    -0.368151   
O217     O      0.035690000000     0.528770000000     0.545980000000    -0.581758   
O218     O      0.822590000000     0.373350000000     0.218780000000    -0.357555   
O219     O      0.748660000000     0.193410000000     0.216540000000    -0.357104   
O220     O      0.886790000000     0.231830000000     0.236920000000    -0.357749   
O221     O      0.678180000000     0.335190000000     0.244960000000    -0.355779   
O222     O      0.830610000000     0.179630000000     0.235190000000    -0.35866    
O223     O      0.732610000000     0.389180000000     0.247870000000    -0.359897   
O224     O      0.695250000000     0.248150000000     0.215080000000    -0.343773   
O225     O      0.877000000000     0.319280000000     0.219020000000    -0.361264   
O226     O      0.755830000000     0.363060000000     0.333500000000    -0.369582   
O227     O      0.819950000000     0.193090000000     0.327400000000    -0.367384   
O228     O      0.887970000000     0.330490000000     0.307310000000    -0.355972   
O229     O      0.680140000000     0.234520000000     0.305000000000    -0.352575   
O230     O      0.737440000000     0.184140000000     0.313190000000    -0.36795    
O231     O      0.835680000000     0.386120000000     0.303660000000    -0.343145   
O232     O      0.698940000000     0.311630000000     0.330800000000    -0.373212   
O233     O      0.875050000000     0.246190000000     0.326210000000    -0.356987   
O234     O      0.784570000000     0.282600000000     0.252860000000    -0.587638   
O235     O      0.683900000000     0.284760000000     0.120470000000    -0.103664   
O236     O      0.609800000000     0.278920000000     0.126640000000    -0.0923488  
O237     O      0.601610000000     0.128960000000     0.298210000000    -0.0908942  
O238     O      0.591860000000     0.200150000000     0.282640000000    -0.0741892  
O239     O      0.643260000000     0.537360000000     0.169680000000    -0.0968084  
O240     O      0.717010000000     0.528080000000     0.163770000000    -0.111283   
O241     O      0.022130000000     0.188570000000     0.132260000000    -0.0807619  
O242     O      0.048210000000     0.170250000000     0.197630000000    -0.0843006  
O243     O      0.818270000000     0.460370000000     0.353520000000    -0.0878831  
O244     O      0.858230000000     0.514170000000     0.323130000000    -0.107539   
O245     O      0.892900000000     0.279960000000     0.420660000000    -0.106081   
O246     O      0.966430000000     0.273300000000     0.410300000000    -0.110708   
O247     O      0.730260000000     0.439010000000     0.503720000000    -0.0962299  
O248     O      0.759900000000     0.478950000000     0.449740000000    -0.0999046  
O249     O      0.002220000000     0.347190000000     0.098390000000    -0.0857488  
O250     O      0.960530000000     0.293400000000     0.070410000000    -0.0951393  
O251     O      0.000070000000     0.439750000000     0.971530000000    -0.362582   
O252     O      0.566260000000     0.118860000000     0.971790000000    -0.368427   
O253     O      0.932660000000     0.076370000000     0.990420000000    -0.364711   
O254     O      0.636830000000     0.483710000000     0.985680000000    -0.348973   
O255     O      0.985370000000     0.131890000000     0.994490000000    -0.361901   
O256     O      0.583890000000     0.428490000000     0.987610000000    -0.361399   
O257     O      0.616550000000     0.061370000000     0.964990000000    -0.372741   
O258     O      0.947460000000     0.495620000000     0.970180000000    -0.367355   
O259     O      0.572330000000     0.442570000000     0.582550000000    -0.358821   
O260     O      0.005800000000     0.110480000000     0.589380000000    -0.350075   
O261     O      0.929030000000     0.476830000000     0.553590000000    -0.358838   
O262     O      0.641830000000     0.080530000000     0.553280000000    -0.348979   
O263     O      0.588290000000     0.135470000000     0.552530000000    -0.347439   
O264     O      0.983500000000     0.423080000000     0.552730000000    -0.339863   
O265     O      0.626990000000     0.495980000000     0.579570000000    -0.34377    
O266     O      0.949610000000     0.058760000000     0.586760000000    -0.368182   
O267     O      0.035690000000     0.528770000000     0.045980000000    -0.581592   
O268     O      0.822590000000     0.373350000000     0.718780000000    -0.357557   
O269     O      0.748660000000     0.193410000000     0.716540000000    -0.357103   
O270     O      0.886790000000     0.231830000000     0.736920000000    -0.357761   
O271     O      0.678180000000     0.335190000000     0.744960000000    -0.355781   
O272     O      0.830610000000     0.179630000000     0.735190000000    -0.358672   
O273     O      0.732610000000     0.389180000000     0.747870000000    -0.359899   
O274     O      0.695250000000     0.248150000000     0.715080000000    -0.343775   
O275     O      0.877000000000     0.319280000000     0.719020000000    -0.361266   
O276     O      0.755830000000     0.363060000000     0.833500000000    -0.369595   
O277     O      0.819950000000     0.193090000000     0.827400000000    -0.36738    
O278     O      0.887970000000     0.330490000000     0.807310000000    -0.355998   
O279     O      0.680140000000     0.234520000000     0.805000000000    -0.352573   
O280     O      0.737440000000     0.184140000000     0.813190000000    -0.367948   
O281     O      0.835680000000     0.386120000000     0.803660000000    -0.343177   
O282     O      0.698940000000     0.311630000000     0.830800000000    -0.373226   
O283     O      0.875050000000     0.246190000000     0.826210000000    -0.356987   
O284     O      0.784570000000     0.282600000000     0.752860000000    -0.587637   
O285     O      0.683900000000     0.284760000000     0.620470000000    -0.103615   
O286     O      0.609800000000     0.278920000000     0.626640000000    -0.0923149  
O287     O      0.601610000000     0.128960000000     0.798210000000    -0.0909004  
O288     O      0.591860000000     0.200150000000     0.782640000000    -0.0741934  
O289     O      0.643260000000     0.537360000000     0.669680000000    -0.0968221  
O290     O      0.717010000000     0.528080000000     0.663770000000    -0.111274   
O291     O      0.022130000000     0.188570000000     0.632260000000    -0.0807327  
O292     O      0.048210000000     0.170250000000     0.697630000000    -0.0843076  
O293     O      0.818270000000     0.460370000000     0.853520000000    -0.0878728  
O294     O      0.858230000000     0.514170000000     0.823130000000    -0.10754    
O295     O      0.892900000000     0.279960000000     0.920670000000    -0.106015   
O296     O      0.966430000000     0.273300000000     0.910300000000    -0.110659   
O297     O      0.730260000000     0.439010000000     0.003720000000    -0.09663    
O298     O      0.759900000000     0.478950000000     0.949740000000    -0.0998024  
O299     O      0.002220000000     0.347190000000     0.598390000000    -0.0857191  
O300     O      0.960530000000     0.293400000000     0.570410000000    -0.0950239  
O301     O      0.000070000000     0.939750000000     0.471540000000    -0.362824   
O302     O      0.566260000000     0.618860000000     0.471790000000    -0.368699   
O303     O      0.932660000000     0.576370000000     0.490420000000    -0.364976   
O304     O      0.636830000000     0.983710000000     0.485680000000    -0.349174   
O305     O      0.985370000000     0.631890000000     0.494490000000    -0.362177   
O306     O      0.583890000000     0.928490000000     0.487610000000    -0.361698   
O307     O      0.616550000000     0.561370000000     0.464980000000    -0.372952   
O308     O      0.947460000000     0.995620000000     0.470190000000    -0.367503   
O309     O      0.572330000000     0.942570000000     0.082550000000    -0.358776   
O310     O      0.005800000000     0.610480000000     0.089380000000    -0.350013   
O311     O      0.929030000000     0.976820000000     0.053590000000    -0.358844   
O312     O      0.641830000000     0.580530000000     0.053280000000    -0.348996   
O313     O      0.588290000000     0.635470000000     0.052530000000    -0.347463   
O314     O      0.983500000000     0.923080000000     0.052730000000    -0.339927   
O315     O      0.626990000000     0.995980000000     0.079570000000    -0.343631   
O316     O      0.949610000000     0.558760000000     0.086750000000    -0.368135   
O317     O      0.035690000000     0.028780000000     0.545980000000    -0.5818     
O318     O      0.822590000000     0.873350000000     0.218780000000    -0.357549   
O319     O      0.748660000000     0.693410000000     0.216540000000    -0.357101   
O320     O      0.886790000000     0.731830000000     0.236920000000    -0.357749   
O321     O      0.678180000000     0.835190000000     0.244960000000    -0.355773   
O322     O      0.830610000000     0.679630000000     0.235190000000    -0.358657   
O323     O      0.732610000000     0.889180000000     0.247870000000    -0.35989    
O324     O      0.695250000000     0.748150000000     0.215080000000    -0.343772   
O325     O      0.877000000000     0.819280000000     0.219020000000    -0.361263   
O326     O      0.755830000000     0.863060000000     0.333500000000    -0.369618   
O327     O      0.819950000000     0.693090000000     0.327400000000    -0.367382   
O328     O      0.887970000000     0.830490000000     0.307310000000    -0.355972   
O329     O      0.680140000000     0.734520000000     0.305000000000    -0.352583   
O330     O      0.737440000000     0.684140000000     0.313190000000    -0.367949   
O331     O      0.835680000000     0.886120000000     0.303660000000    -0.343143   
O332     O      0.698940000000     0.811640000000     0.330800000000    -0.373278   
O333     O      0.875050000000     0.746190000000     0.326210000000    -0.356988   
O334     O      0.784570000000     0.782600000000     0.252860000000    -0.587639   
O335     O      0.683900000000     0.784760000000     0.120470000000    -0.103663   
O336     O      0.609800000000     0.778920000000     0.126640000000    -0.0923495  
O337     O      0.601610000000     0.628960000000     0.298210000000    -0.0908797  
O338     O      0.591860000000     0.700150000000     0.282640000000    -0.0741807  
O339     O      0.643260000000     0.037360000000     0.169680000000    -0.0968678  
O340     O      0.717010000000     0.028080000000     0.163770000000    -0.111347   
O341     O      0.022130000000     0.688570000000     0.132260000000    -0.0807628  
O342     O      0.048210000000     0.670250000000     0.197630000000    -0.084296   
O343     O      0.818270000000     0.960370000000     0.353520000000    -0.087851   
O344     O      0.858230000000     0.014170000000     0.323130000000    -0.107683   
O345     O      0.892900000000     0.779960000000     0.420660000000    -0.106082   
O346     O      0.966430000000     0.773300000000     0.410300000000    -0.110709   
O347     O      0.730260000000     0.939010000000     0.503720000000    -0.0962129  
O348     O      0.759900000000     0.978950000000     0.449740000000    -0.0998583  
O349     O      0.002220000000     0.847190000000     0.098390000000    -0.0857486  
O350     O      0.960530000000     0.793400000000     0.070410000000    -0.0951411  
O351     O      0.000070000000     0.939750000000     0.971530000000    -0.362556   
O352     O      0.566260000000     0.618860000000     0.971790000000    -0.368414   
O353     O      0.932660000000     0.576370000000     0.990420000000    -0.364695   
O354     O      0.636830000000     0.983710000000     0.985680000000    -0.348859   
O355     O      0.985370000000     0.631890000000     0.994490000000    -0.361889   
O356     O      0.583890000000     0.928490000000     0.987610000000    -0.361375   
O357     O      0.616550000000     0.561370000000     0.964990000000    -0.372719   
O358     O      0.947460000000     0.995620000000     0.970180000000    -0.367239   
O359     O      0.572330000000     0.942570000000     0.582550000000    -0.358809   
O360     O      0.005800000000     0.610480000000     0.589380000000    -0.350069   
O361     O      0.929030000000     0.976820000000     0.553590000000    -0.358807   
O362     O      0.641830000000     0.580530000000     0.553280000000    -0.348974   
O363     O      0.588290000000     0.635470000000     0.552530000000    -0.347431   
O364     O      0.983500000000     0.923080000000     0.552730000000    -0.339894   
O365     O      0.626990000000     0.995980000000     0.579570000000    -0.343648   
O366     O      0.949610000000     0.558760000000     0.586760000000    -0.368166   
O367     O      0.035690000000     0.028780000000     0.045980000000    -0.581634   
O368     O      0.822590000000     0.873350000000     0.718780000000    -0.357552   
O369     O      0.748660000000     0.693410000000     0.716540000000    -0.3571     
O370     O      0.886790000000     0.731830000000     0.736920000000    -0.357761   
O371     O      0.678180000000     0.835190000000     0.744960000000    -0.355775   
O372     O      0.830610000000     0.679630000000     0.735190000000    -0.358668   
O373     O      0.732610000000     0.889180000000     0.747870000000    -0.359891   
O374     O      0.695250000000     0.748150000000     0.715080000000    -0.343774   
O375     O      0.877000000000     0.819280000000     0.719020000000    -0.361266   
O376     O      0.755830000000     0.863060000000     0.833500000000    -0.369631   
O377     O      0.819950000000     0.693090000000     0.827400000000    -0.367378   
O378     O      0.887970000000     0.830490000000     0.807310000000    -0.355999   
O379     O      0.680140000000     0.734520000000     0.805000000000    -0.352581   
O380     O      0.737440000000     0.684140000000     0.813190000000    -0.367947   
O381     O      0.835680000000     0.886120000000     0.803660000000    -0.343175   
O382     O      0.698940000000     0.811640000000     0.830800000000    -0.373292   
O383     O      0.875050000000     0.746190000000     0.826210000000    -0.356988   
O384     O      0.784570000000     0.782600000000     0.752860000000    -0.587638   
O385     O      0.683900000000     0.784760000000     0.620470000000    -0.103614   
O386     O      0.609800000000     0.778920000000     0.626640000000    -0.0923157  
O387     O      0.601610000000     0.628960000000     0.798210000000    -0.090886   
O388     O      0.591860000000     0.700150000000     0.782640000000    -0.0741849  
O389     O      0.643260000000     0.037360000000     0.669680000000    -0.0968816  
O390     O      0.717010000000     0.028080000000     0.663770000000    -0.111337   
O391     O      0.022130000000     0.688570000000     0.632260000000    -0.0807336  
O392     O      0.048210000000     0.670250000000     0.697630000000    -0.084303   
O393     O      0.818270000000     0.960370000000     0.853520000000    -0.0878407  
O394     O      0.858230000000     0.014170000000     0.823130000000    -0.107684   
O395     O      0.892900000000     0.779960000000     0.920670000000    -0.106017   
O396     O      0.966430000000     0.773300000000     0.910300000000    -0.11066    
O397     O      0.730260000000     0.939010000000     0.003720000000    -0.0966128  
O398     O      0.759900000000     0.978950000000     0.949740000000    -0.0997563  
O399     O      0.002220000000     0.847190000000     0.598390000000    -0.0857189  
O400     O      0.960530000000     0.793400000000     0.570410000000    -0.0950257  


