data_structure

_audit_creation_method RASPA-1.0
_audit_creation_date 2023-5-9
_audit_author_name 'Poobodin Mano'

_cell_length_a    36.0508
_cell_length_b    36.0075
_cell_length_c    36.8077
_cell_angle_alpha 90
_cell_angle_beta  90
_cell_angle_gamma 90
_cell_volume      47780

_symmetry_cell_setting          triclinic
_symmetry_space_group_name_Hall 'P 1'
_symmetry_space_group_name_H-M  'P 1'
_symmetry_Int_Tables_number     1

_symmetry_equiv_pos_as_xyz 'x,y,z'

loop_
_atom_site_label
_atom_site_type_symbol
_atom_site_fract_x
_atom_site_fract_y
_atom_site_fract_z
_atom_site_charge
C1       C      0.510580000000     0.096960000000     0.192080000000     0.399369   
C2       C      0.114100000000     0.520480000000     0.324570000000     0.405046   
C3       C      0.520400000000     0.117190000000     0.323020000000     0.402314   
C4       C      0.096490000000     0.514990000000     0.194330000000     0.399419   
C5       C      0.030980000000     0.439370000000     0.211310000000     0.398858   
C6       C      0.456610000000     0.042350000000     0.337580000000     0.392711   
C7       C      0.436730000000     0.031430000000     0.212280000000     0.396413   
C8       C      0.038240000000     0.457340000000     0.335570000000     0.392045   
C9       C      0.040370000000     0.202300000000     0.086160000000     0.399504   
C10      C      0.444880000000     0.340380000000     0.509650000000     0.403612   
C11      C      0.038730000000     0.340050000000     0.100080000000     0.400105   
C12      C      0.451650000000     0.211320000000     0.505220000000     0.388921   
C13      C      0.520250000000     0.221090000000     0.429920000000     0.39502    
C14      C      0.106730000000     0.341920000000     0.026080000000     0.382561   
C15      C      0.112390000000     0.220310000000     0.019990000000     0.39782    
C16      C      0.516630000000     0.350930000000     0.442430000000     0.394155   
C17      C      0.335180000000     0.034790000000     0.103150000000     0.392817   
C18      C      0.214330000000     0.449330000000     0.507640000000     0.382547   
C19      C      0.203630000000     0.039900000000     0.089170000000     0.395644   
C20      C      0.336110000000     0.443870000000     0.513660000000     0.398411   
C21      C      0.352140000000     0.516200000000     0.445260000000     0.398757   
C22      C      0.216070000000     0.111390000000     0.023810000000     0.402957   
C23      C      0.344810000000     0.104640000000     0.028490000000     0.388874   
C24      C      0.216030000000     0.516010000000     0.433260000000     0.402456   
C25      C      0.383920000000     0.357930000000     0.491410000000     0.0333577  
C26      C      0.411420000000     0.385130000000     0.543170000000     0.0333853  
C27      C      0.383050000000     0.410970000000     0.544710000000     0.0322951  
C28      C      0.355560000000     0.384370000000     0.492660000000     0.0324319  
C29      C      0.412600000000     0.177830000000     0.045700000000     0.0341756  
C30      C      0.402670000000     0.173730000000     0.482480000000     0.033495   
C31      C      0.376860000000     0.145150000000     0.488380000000     0.0345706  
C32      C      0.383840000000     0.152230000000     0.051720000000     0.0335159  
C33      C      0.148470000000     0.374830000000     0.487530000000     0.0336968  
C34      C      0.154730000000     0.379500000000     0.051090000000     0.0329087  
C35      C      0.180660000000     0.408330000000     0.046410000000     0.0334703  
C36      C      0.177310000000     0.400740000000     0.482900000000     0.032991   
C37      C      0.145600000000     0.173540000000     0.988900000000     0.0328091  
C38      C      0.171500000000     0.200420000000     0.041580000000     0.0324105  
C39      C      0.197980000000     0.172080000000     0.042750000000     0.0333659  
C40      C      0.171510000000     0.145190000000     0.990340000000     0.0338222  
C41      C      0.439950000000     0.532140000000     0.398840000000     0.032528   
C42      C      0.392570000000     0.034250000000     0.354770000000     0.0310544  
C43      C      0.366250000000     0.026010000000     0.382020000000     0.0322628  
C44      C      0.413910000000     0.525580000000     0.425830000000     0.0335036  
C45      C      0.171830000000     0.549320000000     0.399470000000     0.0330815  
C46      C      0.197490000000     0.494570000000     0.374660000000     0.0328071  
C47      C      0.171430000000     0.495740000000     0.346460000000     0.0324444  
C48      C      0.146810000000     0.551030000000     0.371150000000     0.0331658  
C49      C      0.141380000000     0.031620000000     0.107220000000     0.0337846  
C50      C      0.187660000000     0.033600000000     0.152420000000     0.0317987  
C51      C      0.160520000000     0.525660000000     0.178940000000     0.0322616  
C52      C      0.114490000000     0.525410000000     0.133440000000     0.032848   
C53      C      0.402700000000     0.499180000000     0.167330000000     0.0321014  
C54      C      0.378970000000     0.055460000000     0.190410000000     0.0317086  
C55      C      0.352930000000     0.056290000000     0.162090000000     0.0314772  
C56      C      0.377650000000     0.500540000000     0.138770000000     0.0318253  
C57      C      0.553410000000     0.151320000000     0.367170000000     0.033077   
C58      C      0.997410000000     0.175690000000     0.344110000000     0.0325427  
C59      C      0.997540000000     0.202530000000     0.371710000000     0.031768   
C60      C      0.553220000000     0.177410000000     0.394770000000     0.0319671  
C61      C      0.030320000000     0.392790000000     0.351730000000     0.0311571  
C62      C      0.028270000000     0.439570000000     0.396470000000     0.032408   
C63      C      0.523240000000     0.412970000000     0.423180000000     0.0337137  
C64      C      0.523210000000     0.365800000000     0.378790000000     0.0318374  
C65      C      0.001240000000     0.406970000000     0.163780000000     0.0319168  
C66      C      0.056670000000     0.382830000000     0.188390000000     0.0317798  
C67      C      0.058830000000     0.357680000000     0.159420000000     0.0325813  
C68      C      0.004150000000     0.383100000000     0.134440000000     0.0328353  
C69      C      0.521250000000     0.160630000000     0.175620000000     0.0321158  
C70      C      0.521530000000     0.113850000000     0.130820000000     0.0329035  
C71      C      0.029310000000     0.140190000000     0.104320000000     0.0334361  
C72      C      0.030420000000     0.187130000000     0.148960000000     0.0321536  
C73      C      0.510580000000     0.096960000000     0.692080000000     0.399371   
C74      C      0.114100000000     0.520480000000     0.824570000000     0.405047   
C75      C      0.520400000000     0.117190000000     0.823020000000     0.402324   
C76      C      0.096490000000     0.514990000000     0.694330000000     0.399419   
C77      C      0.030980000000     0.439370000000     0.711310000000     0.398797   
C78      C      0.456610000000     0.042350000000     0.837580000000     0.392788   
C79      C      0.436730000000     0.031430000000     0.712280000000     0.396392   
C80      C      0.038240000000     0.457340000000     0.835570000000     0.391978   
C81      C      0.040370000000     0.202300000000     0.586160000000     0.399591   
C82      C      0.444880000000     0.340380000000     0.009650000000     0.402834   
C83      C      0.038730000000     0.340050000000     0.600080000000     0.400095   
C84      C      0.451650000000     0.211320000000     0.005220000000     0.388485   
C85      C      0.520250000000     0.221090000000     0.929920000000     0.395016   
C86      C      0.106730000000     0.341920000000     0.526080000000     0.382616   
C87      C      0.112390000000     0.220310000000     0.519990000000     0.398277   
C88      C      0.516630000000     0.350930000000     0.942430000000     0.394134   
C89      C      0.335180000000     0.034800000000     0.603150000000     0.39273    
C90      C      0.214330000000     0.449330000000     0.007640000000     0.382138   
C91      C      0.203630000000     0.039900000000     0.589170000000     0.395647   
C92      C      0.336100000000     0.443870000000     0.013660000000     0.397927   
C93      C      0.352140000000     0.516200000000     0.945260000000     0.398771   
C94      C      0.216070000000     0.111390000000     0.523810000000     0.40295    
C95      C      0.344810000000     0.104640000000     0.528490000000     0.389045   
C96      C      0.216030000000     0.516010000000     0.933260000000     0.402475   
C97      C      0.383910000000     0.357930000000     0.991420000000     0.0337597  
C98      C      0.411420000000     0.385130000000     0.043170000000     0.0333243  
C99      C      0.383050000000     0.410970000000     0.044710000000     0.0321701  
C100     C      0.355560000000     0.384360000000     0.992660000000     0.0326918  
C101     C      0.412600000000     0.177830000000     0.545700000000     0.0342239  
C102     C      0.402670000000     0.173730000000     0.982470000000     0.0337728  
C103     C      0.376860000000     0.145140000000     0.988370000000     0.0349851  
C104     C      0.383840000000     0.152230000000     0.551720000000     0.0336324  
C105     C      0.148470000000     0.374820000000     0.987520000000     0.0340416  
C106     C      0.154730000000     0.379500000000     0.551090000000     0.0330305  
C107     C      0.180660000000     0.408330000000     0.546410000000     0.033517   
C108     C      0.177310000000     0.400740000000     0.982900000000     0.0333711  
C109     C      0.145600000000     0.173540000000     0.488900000000     0.0324668  
C110     C      0.171500000000     0.200420000000     0.541580000000     0.0325052  
C111     C      0.197980000000     0.172080000000     0.542750000000     0.0334217  
C112     C      0.171510000000     0.145190000000     0.490340000000     0.0334402  
C113     C      0.439950000000     0.532140000000     0.898840000000     0.0324717  
C114     C      0.392570000000     0.034250000000     0.854770000000     0.0310916  
C115     C      0.366250000000     0.026010000000     0.882020000000     0.0322602  
C116     C      0.413910000000     0.525580000000     0.925830000000     0.0335529  
C117     C      0.171830000000     0.549320000000     0.899470000000     0.0330938  
C118     C      0.197490000000     0.494570000000     0.874650000000     0.0327628  
C119     C      0.171430000000     0.495740000000     0.846460000000     0.0324777  
C120     C      0.146810000000     0.551030000000     0.871150000000     0.0331799  
C121     C      0.141380000000     0.031620000000     0.607220000000     0.0337852  
C122     C      0.187660000000     0.033600000000     0.652420000000     0.0317664  
C123     C      0.160520000000     0.525660000000     0.678940000000     0.0322632  
C124     C      0.114490000000     0.525410000000     0.633440000000     0.0328568  
C125     C      0.402700000000     0.499180000000     0.667330000000     0.0320746  
C126     C      0.378970000000     0.055460000000     0.690410000000     0.0317152  
C127     C      0.352930000000     0.056290000000     0.662090000000     0.0314613  
C128     C      0.377650000000     0.500540000000     0.638770000000     0.03185    
C129     C      0.553410000000     0.151320000000     0.867170000000     0.0330928  
C130     C      0.997410000000     0.175690000000     0.844110000000     0.0325443  
C131     C      0.997540000000     0.202530000000     0.871710000000     0.0317765  
C132     C      0.553220000000     0.177410000000     0.894770000000     0.0319692  
C133     C      0.030320000000     0.392790000000     0.851730000000     0.031124   
C134     C      0.028270000000     0.439570000000     0.896470000000     0.0325094  
C135     C      0.523240000000     0.412970000000     0.923190000000     0.0336531  
C136     C      0.523210000000     0.365800000000     0.878790000000     0.0318591  
C137     C      0.001240000000     0.406970000000     0.663780000000     0.031951   
C138     C      0.056670000000     0.382830000000     0.688390000000     0.03176    
C139     C      0.058830000000     0.357680000000     0.659420000000     0.0325904  
C140     C      0.004150000000     0.383100000000     0.634440000000     0.0328289  
C141     C      0.521250000000     0.160630000000     0.675620000000     0.0321321  
C142     C      0.521530000000     0.113850000000     0.630820000000     0.0328954  
C143     C      0.029310000000     0.140190000000     0.604320000000     0.0334842  
C144     C      0.030420000000     0.187130000000     0.648960000000     0.0321062  
C145     C      0.510580000000     0.596960000000     0.192080000000     0.399397   
C146     C      0.114100000000     0.020480000000     0.324570000000     0.404992   
C147     C      0.520400000000     0.617190000000     0.323020000000     0.402347   
C148     C      0.096490000000     0.014990000000     0.194330000000     0.39942    
C149     C      0.030980000000     0.939380000000     0.211310000000     0.398936   
C150     C      0.456610000000     0.542350000000     0.337580000000     0.392743   
C151     C      0.436720000000     0.531430000000     0.212280000000     0.396445   
C152     C      0.038240000000     0.957340000000     0.335570000000     0.391985   
C153     C      0.040370000000     0.702300000000     0.086160000000     0.399798   
C154     C      0.444880000000     0.840380000000     0.509650000000     0.403482   
C155     C      0.038730000000     0.840050000000     0.100080000000     0.400117   
C156     C      0.451650000000     0.711310000000     0.505220000000     0.38889    
C157     C      0.520260000000     0.721090000000     0.429920000000     0.395006   
C158     C      0.106730000000     0.841920000000     0.026080000000     0.382574   
C159     C      0.112390000000     0.720310000000     0.019990000000     0.39781    
C160     C      0.516630000000     0.850930000000     0.442430000000     0.394154   
C161     C      0.335180000000     0.534790000000     0.103150000000     0.392819   
C162     C      0.214330000000     0.949330000000     0.507640000000     0.382623   
C163     C      0.203630000000     0.539900000000     0.089170000000     0.395668   
C164     C      0.336110000000     0.943870000000     0.513660000000     0.398412   
C165     C      0.352140000000     0.016200000000     0.445250000000     0.398641   
C166     C      0.216070000000     0.611390000000     0.023810000000     0.402959   
C167     C      0.344810000000     0.604640000000     0.028490000000     0.388875   
C168     C      0.216030000000     0.016010000000     0.433260000000     0.402241   
C169     C      0.383920000000     0.857930000000     0.491410000000     0.0333671  
C170     C      0.411420000000     0.885130000000     0.543170000000     0.0333994  
C171     C      0.383050000000     0.910980000000     0.544710000000     0.0323041  
C172     C      0.355560000000     0.884370000000     0.492660000000     0.03244    
C173     C      0.412600000000     0.677830000000     0.045700000000     0.0341817  
C174     C      0.402670000000     0.673730000000     0.482480000000     0.0335042  
C175     C      0.376860000000     0.645150000000     0.488380000000     0.0345641  
C176     C      0.383840000000     0.652230000000     0.051720000000     0.033508   
C177     C      0.148470000000     0.874830000000     0.487520000000     0.0336664  
C178     C      0.154730000000     0.879500000000     0.051090000000     0.032918   
C179     C      0.180660000000     0.908330000000     0.046410000000     0.0334796  
C180     C      0.177310000000     0.900740000000     0.482900000000     0.0330364  
C181     C      0.145600000000     0.673540000000     0.988900000000     0.0328098  
C182     C      0.171500000000     0.700420000000     0.041580000000     0.032423   
C183     C      0.197980000000     0.672080000000     0.042750000000     0.0333603  
C184     C      0.171510000000     0.645190000000     0.990340000000     0.0338227  
C185     C      0.439950000000     0.032130000000     0.398840000000     0.0325085  
C186     C      0.392570000000     0.534250000000     0.354770000000     0.031097   
C187     C      0.366240000000     0.526010000000     0.382020000000     0.0322326  
C188     C      0.413920000000     0.025580000000     0.425830000000     0.0334504  
C189     C      0.171830000000     0.049320000000     0.399470000000     0.0331321  
C190     C      0.197490000000     0.994570000000     0.374650000000     0.0328156  
C191     C      0.171430000000     0.995740000000     0.346460000000     0.0326318  
C192     C      0.146810000000     0.051030000000     0.371150000000     0.0331142  
C193     C      0.141380000000     0.531630000000     0.107220000000     0.0337995  
C194     C      0.187660000000     0.533600000000     0.152420000000     0.0318143  
C195     C      0.160520000000     0.025660000000     0.178940000000     0.0322495  
C196     C      0.114490000000     0.025400000000     0.133440000000     0.0328354  
C197     C      0.402700000000     0.999180000000     0.167320000000     0.0325574  
C198     C      0.378960000000     0.555460000000     0.190420000000     0.0316719  
C199     C      0.352920000000     0.556290000000     0.162090000000     0.0315269  
C200     C      0.377650000000     0.000540000000     0.138760000000     0.0313331  
C201     C      0.553410000000     0.651320000000     0.367170000000     0.0330765  
C202     C      0.997410000000     0.675690000000     0.344110000000     0.0325307  
C203     C      0.997540000000     0.702520000000     0.371710000000     0.031785   
C204     C      0.553220000000     0.677410000000     0.394770000000     0.0319612  
C205     C      0.030320000000     0.892790000000     0.351730000000     0.0312123  
C206     C      0.028270000000     0.939570000000     0.396470000000     0.032362   
C207     C      0.523240000000     0.912970000000     0.423180000000     0.0337095  
C208     C      0.523210000000     0.865800000000     0.378790000000     0.0318578  
C209     C      0.001240000000     0.906970000000     0.163780000000     0.0319136  
C210     C      0.056670000000     0.882830000000     0.188390000000     0.0317826  
C211     C      0.058830000000     0.857680000000     0.159420000000     0.032589   
C212     C      0.004150000000     0.883100000000     0.134440000000     0.0328493  
C213     C      0.521250000000     0.660630000000     0.175620000000     0.0321117  
C214     C      0.521530000000     0.613850000000     0.130820000000     0.0329028  
C215     C      0.029310000000     0.640190000000     0.104320000000     0.0334171  
C216     C      0.030420000000     0.687130000000     0.148960000000     0.0321742  
C217     C      0.510580000000     0.596960000000     0.692080000000     0.399384   
C218     C      0.114100000000     0.020480000000     0.824560000000     0.405022   
C219     C      0.520400000000     0.617190000000     0.823020000000     0.402358   
C220     C      0.096490000000     0.014990000000     0.694330000000     0.399422   
C221     C      0.030980000000     0.939380000000     0.711310000000     0.398936   
C222     C      0.456610000000     0.542350000000     0.837580000000     0.392821   
C223     C      0.436720000000     0.531430000000     0.712280000000     0.396433   
C224     C      0.038240000000     0.957340000000     0.835570000000     0.39192    
C225     C      0.040370000000     0.702300000000     0.586160000000     0.399797   
C226     C      0.444880000000     0.840380000000     0.009650000000     0.402833   
C227     C      0.038730000000     0.840050000000     0.600080000000     0.399966   
C228     C      0.451650000000     0.711320000000     0.005220000000     0.388492   
C229     C      0.520260000000     0.721090000000     0.929920000000     0.395002   
C230     C      0.106730000000     0.841920000000     0.526080000000     0.382614   
C231     C      0.112390000000     0.720310000000     0.519990000000     0.398277   
C232     C      0.516630000000     0.850930000000     0.942430000000     0.394134   
C233     C      0.335180000000     0.534790000000     0.603150000000     0.392743   
C234     C      0.214330000000     0.949330000000     0.007640000000     0.382138   
C235     C      0.203630000000     0.539900000000     0.589170000000     0.395579   
C236     C      0.336100000000     0.943870000000     0.013660000000     0.397928   
C237     C      0.352140000000     0.016200000000     0.945260000000     0.398725   
C238     C      0.216070000000     0.611390000000     0.523810000000     0.402983   
C239     C      0.344810000000     0.604640000000     0.528490000000     0.388976   
C240     C      0.216030000000     0.016010000000     0.933260000000     0.402258   
C241     C      0.383910000000     0.857930000000     0.991420000000     0.0337628  
C242     C      0.411420000000     0.885130000000     0.043170000000     0.0333062  
C243     C      0.383050000000     0.910970000000     0.044710000000     0.032193   
C244     C      0.355560000000     0.884360000000     0.992660000000     0.0327022  
C245     C      0.412600000000     0.677840000000     0.545700000000     0.0342372  
C246     C      0.402670000000     0.673730000000     0.982480000000     0.0338449  
C247     C      0.376860000000     0.645150000000     0.988370000000     0.0349143  
C248     C      0.383840000000     0.652230000000     0.551720000000     0.0336435  
C249     C      0.148470000000     0.874820000000     0.987520000000     0.0340475  
C250     C      0.154730000000     0.879500000000     0.551090000000     0.032968   
C251     C      0.180660000000     0.908330000000     0.546410000000     0.0335635  
C252     C      0.177310000000     0.900740000000     0.982900000000     0.0333792  
C253     C      0.145600000000     0.673540000000     0.488900000000     0.0324667  
C254     C      0.171500000000     0.700420000000     0.541580000000     0.0325044  
C255     C      0.197980000000     0.672080000000     0.542750000000     0.0334207  
C256     C      0.171510000000     0.645190000000     0.490340000000     0.0334434  
C257     C      0.439950000000     0.032130000000     0.898840000000     0.0324398  
C258     C      0.392570000000     0.534250000000     0.854770000000     0.0311386  
C259     C      0.366240000000     0.526010000000     0.882020000000     0.0322334  
C260     C      0.413910000000     0.025580000000     0.925830000000     0.0335597  
C261     C      0.171830000000     0.049320000000     0.899470000000     0.0331192  
C262     C      0.197490000000     0.994570000000     0.874650000000     0.0327979  
C263     C      0.171430000000     0.995750000000     0.846460000000     0.0326954  
C264     C      0.146810000000     0.051030000000     0.871150000000     0.0331374  
C265     C      0.141380000000     0.531630000000     0.607220000000     0.0338027  
C266     C      0.187660000000     0.533600000000     0.652420000000     0.0318095  
C267     C      0.160520000000     0.025660000000     0.678930000000     0.0322955  
C268     C      0.114490000000     0.025400000000     0.633440000000     0.0328438  
C269     C      0.402700000000     0.999180000000     0.667330000000     0.0326057  
C270     C      0.378960000000     0.555460000000     0.690420000000     0.0316661  
C271     C      0.352920000000     0.556290000000     0.662090000000     0.0315337  
C272     C      0.377650000000     0.000540000000     0.638760000000     0.0313261  
C273     C      0.553410000000     0.651320000000     0.867170000000     0.0330929  
C274     C      0.997410000000     0.675690000000     0.844110000000     0.0325547  
C275     C      0.997540000000     0.702530000000     0.871710000000     0.0317692  
C276     C      0.553220000000     0.677410000000     0.894770000000     0.031964   
C277     C      0.030320000000     0.892790000000     0.851730000000     0.0311797  
C278     C      0.028270000000     0.939570000000     0.896470000000     0.0324628  
C279     C      0.523240000000     0.912970000000     0.923190000000     0.03367    
C280     C      0.523210000000     0.865800000000     0.878790000000     0.0318636  
C281     C      0.001240000000     0.906970000000     0.663780000000     0.0319186  
C282     C      0.056670000000     0.882830000000     0.688390000000     0.0317857  
C283     C      0.058830000000     0.857680000000     0.659420000000     0.0325796  
C284     C      0.004150000000     0.883100000000     0.634440000000     0.0328494  
C285     C      0.521250000000     0.660630000000     0.675620000000     0.0321286  
C286     C      0.521530000000     0.613850000000     0.630820000000     0.0328905  
C287     C      0.029310000000     0.640190000000     0.604320000000     0.0334198  
C288     C      0.030420000000     0.687130000000     0.648960000000     0.0321746  
C289     C      0.010580000000     0.096960000000     0.192080000000     0.399324   
C290     C      0.614100000000     0.520480000000     0.324570000000     0.405203   
C291     C      0.020400000000     0.117190000000     0.323010000000     0.402003   
C292     C      0.596490000000     0.514990000000     0.194330000000     0.399422   
C293     C      0.530980000000     0.439370000000     0.211310000000     0.398893   
C294     C      0.956610000000     0.042350000000     0.337580000000     0.392718   
C295     C      0.936720000000     0.031440000000     0.212280000000     0.39634    
C296     C      0.538240000000     0.457330000000     0.335570000000     0.391931   
C297     C      0.540370000000     0.202300000000     0.086160000000     0.399483   
C298     C      0.944890000000     0.340380000000     0.509650000000     0.403545   
C299     C      0.538730000000     0.340050000000     0.100080000000     0.400119   
C300     C      0.951650000000     0.211320000000     0.505220000000     0.388773   
C301     C      0.020260000000     0.221090000000     0.429920000000     0.394966   
C302     C      0.606730000000     0.341920000000     0.026080000000     0.382565   
C303     C      0.612390000000     0.220310000000     0.019990000000     0.397822   
C304     C      0.016630000000     0.350930000000     0.442430000000     0.394183   
C305     C      0.835180000000     0.034790000000     0.103150000000     0.392816   
C306     C      0.714330000000     0.449330000000     0.507640000000     0.382535   
C307     C      0.703630000000     0.039900000000     0.089170000000     0.395621   
C308     C      0.836110000000     0.443870000000     0.513660000000     0.398413   
C309     C      0.852140000000     0.516200000000     0.445260000000     0.398752   
C310     C      0.716070000000     0.111390000000     0.023810000000     0.402946   
C311     C      0.844810000000     0.104640000000     0.028490000000     0.389026   
C312     C      0.716040000000     0.516010000000     0.433260000000     0.402465   
C313     C      0.883920000000     0.357930000000     0.491410000000     0.0333638  
C314     C      0.911420000000     0.385130000000     0.543170000000     0.0333778  
C315     C      0.883050000000     0.410970000000     0.544710000000     0.0323077  
C316     C      0.855560000000     0.384370000000     0.492660000000     0.0324358  
C317     C      0.912600000000     0.177830000000     0.045700000000     0.0341646  
C318     C      0.902670000000     0.173730000000     0.482480000000     0.0335451  
C319     C      0.876860000000     0.145150000000     0.488370000000     0.0344846  
C320     C      0.883840000000     0.152230000000     0.051720000000     0.0335381  
C321     C      0.648470000000     0.374830000000     0.487530000000     0.0337016  
C322     C      0.654730000000     0.379500000000     0.051090000000     0.0329127  
C323     C      0.680660000000     0.408330000000     0.046410000000     0.033464   
C324     C      0.677300000000     0.400740000000     0.482900000000     0.0329687  
C325     C      0.645590000000     0.173540000000     0.988900000000     0.0327908  
C326     C      0.671500000000     0.200420000000     0.041580000000     0.0324107  
C327     C      0.697980000000     0.172080000000     0.042750000000     0.0333681  
C328     C      0.671510000000     0.145190000000     0.990340000000     0.0338536  
C329     C      0.939950000000     0.532140000000     0.398850000000     0.0324857  
C330     C      0.892570000000     0.034250000000     0.354770000000     0.031064   
C331     C      0.866250000000     0.026010000000     0.382020000000     0.0322659  
C332     C      0.913920000000     0.525580000000     0.425830000000     0.0334858  
C333     C      0.671830000000     0.549320000000     0.399470000000     0.0331503  
C334     C      0.697490000000     0.494570000000     0.374660000000     0.032701   
C335     C      0.671430000000     0.495750000000     0.346460000000     0.0325504  
C336     C      0.646810000000     0.551030000000     0.371150000000     0.0331501  
C337     C      0.641380000000     0.031620000000     0.107220000000     0.0337806  
C338     C      0.687660000000     0.033600000000     0.152420000000     0.0317975  
C339     C      0.660520000000     0.525660000000     0.178940000000     0.0322631  
C340     C      0.614490000000     0.525400000000     0.133440000000     0.0328532  
C341     C      0.902700000000     0.499180000000     0.167330000000     0.0321009  
C342     C      0.878970000000     0.055460000000     0.190410000000     0.0317045  
C343     C      0.852930000000     0.056290000000     0.162090000000     0.0315028  
C344     C      0.877650000000     0.500540000000     0.138770000000     0.0318337  
C345     C      0.053420000000     0.151320000000     0.367170000000     0.0329993  
C346     C      0.497400000000     0.175690000000     0.344110000000     0.0323894  
C347     C      0.497530000000     0.202520000000     0.371720000000     0.03167    
C348     C      0.053220000000     0.177410000000     0.394770000000     0.0319582  
C349     C      0.530320000000     0.392790000000     0.351730000000     0.0312204  
C350     C      0.528270000000     0.439570000000     0.396470000000     0.0323792  
C351     C      0.023240000000     0.412970000000     0.423180000000     0.0336935  
C352     C      0.023210000000     0.365800000000     0.378790000000     0.0318401  
C353     C      0.501240000000     0.406970000000     0.163780000000     0.0320582  
C354     C      0.556670000000     0.382830000000     0.188390000000     0.0317964  
C355     C      0.558830000000     0.357670000000     0.159420000000     0.0325701  
C356     C      0.504150000000     0.383100000000     0.134440000000     0.0329723  
C357     C      0.021250000000     0.160630000000     0.175620000000     0.0321497  
C358     C      0.021530000000     0.113850000000     0.130820000000     0.0328491  
C359     C      0.529320000000     0.140190000000     0.104320000000     0.0334377  
C360     C      0.530420000000     0.187130000000     0.148960000000     0.0321834  
C361     C      0.010580000000     0.096960000000     0.692080000000     0.399327   
C362     C      0.614100000000     0.520480000000     0.824570000000     0.405201   
C363     C      0.020400000000     0.117190000000     0.823010000000     0.402012   
C364     C      0.596490000000     0.514990000000     0.694330000000     0.399423   
C365     C      0.530980000000     0.439370000000     0.711310000000     0.398893   
C366     C      0.956610000000     0.042350000000     0.837580000000     0.392796   
C367     C      0.936720000000     0.031440000000     0.712280000000     0.39633    
C368     C      0.538240000000     0.457330000000     0.835570000000     0.391865   
C369     C      0.540370000000     0.202300000000     0.586160000000     0.399569   
C370     C      0.944880000000     0.340380000000     0.009650000000     0.402926   
C371     C      0.538730000000     0.340050000000     0.600080000000     0.400133   
C372     C      0.951650000000     0.211320000000     0.005220000000     0.388196   
C373     C      0.020260000000     0.221090000000     0.929920000000     0.394972   
C374     C      0.606730000000     0.341920000000     0.526080000000     0.382607   
C375     C      0.612390000000     0.220310000000     0.519990000000     0.398432   
C376     C      0.016630000000     0.350930000000     0.942430000000     0.394146   
C377     C      0.835180000000     0.034800000000     0.603150000000     0.392729   
C378     C      0.714330000000     0.449330000000     0.007640000000     0.381981   
C379     C      0.703630000000     0.039900000000     0.589170000000     0.395625   
C380     C      0.836100000000     0.443870000000     0.013660000000     0.397931   
C381     C      0.852140000000     0.516200000000     0.945260000000     0.398772   
C382     C      0.716070000000     0.111390000000     0.523810000000     0.402937   
C383     C      0.844810000000     0.104640000000     0.528490000000     0.38904    
C384     C      0.716030000000     0.516010000000     0.933260000000     0.402441   
C385     C      0.883920000000     0.357930000000     0.991420000000     0.0338004  
C386     C      0.911420000000     0.385120000000     0.043170000000     0.0333842  
C387     C      0.883050000000     0.410970000000     0.044710000000     0.0321603  
C388     C      0.855560000000     0.384360000000     0.992660000000     0.0326804  
C389     C      0.912600000000     0.177830000000     0.545700000000     0.0342389  
C390     C      0.902670000000     0.173730000000     0.982470000000     0.0337656  
C391     C      0.876860000000     0.145140000000     0.988370000000     0.035003   
C392     C      0.883840000000     0.152230000000     0.551720000000     0.0336374  
C393     C      0.648470000000     0.374820000000     0.987520000000     0.0340456  
C394     C      0.654730000000     0.379500000000     0.551090000000     0.0330323  
C395     C      0.680660000000     0.408330000000     0.546410000000     0.0335152  
C396     C      0.677310000000     0.400740000000     0.982900000000     0.0333643  
C397     C      0.645600000000     0.173540000000     0.488900000000     0.0324777  
C398     C      0.671500000000     0.200420000000     0.541580000000     0.0325131  
C399     C      0.697980000000     0.172080000000     0.542750000000     0.0334188  
C400     C      0.671510000000     0.145190000000     0.490340000000     0.0334365  
C401     C      0.939950000000     0.532140000000     0.898840000000     0.0325861  
C402     C      0.892570000000     0.034250000000     0.854770000000     0.0311147  
C403     C      0.866250000000     0.026010000000     0.882020000000     0.0322436  
C404     C      0.913920000000     0.525580000000     0.925830000000     0.0334659  
C405     C      0.671830000000     0.549320000000     0.899470000000     0.0331601  
C406     C      0.697490000000     0.494570000000     0.874650000000     0.0326701  
C407     C      0.671430000000     0.495750000000     0.846460000000     0.0325776  
C408     C      0.646810000000     0.551030000000     0.871160000000     0.0331227  
C409     C      0.641380000000     0.031620000000     0.607220000000     0.0337855  
C410     C      0.687660000000     0.033600000000     0.652420000000     0.0317981  
C411     C      0.660520000000     0.525660000000     0.678940000000     0.0322687  
C412     C      0.614490000000     0.525400000000     0.633440000000     0.0328988  
C413     C      0.902700000000     0.499180000000     0.667330000000     0.0320806  
C414     C      0.878970000000     0.055460000000     0.690410000000     0.0317093  
C415     C      0.852930000000     0.056290000000     0.662090000000     0.0314913  
C416     C      0.877650000000     0.500540000000     0.638770000000     0.031855   
C417     C      0.053420000000     0.151320000000     0.867170000000     0.0329943  
C418     C      0.497400000000     0.175690000000     0.844110000000     0.0324151  
C419     C      0.497530000000     0.202520000000     0.871710000000     0.031622   
C420     C      0.053220000000     0.177410000000     0.894760000000     0.0319819  
C421     C      0.530320000000     0.392790000000     0.851730000000     0.0311877  
C422     C      0.528270000000     0.439570000000     0.896470000000     0.0324982  
C423     C      0.023230000000     0.412970000000     0.923190000000     0.0336413  
C424     C      0.023210000000     0.365800000000     0.878790000000     0.0318626  
C425     C      0.501240000000     0.406970000000     0.663780000000     0.0320598  
C426     C      0.556670000000     0.382830000000     0.688390000000     0.0317954  
C427     C      0.558830000000     0.357670000000     0.659420000000     0.0325706  
C428     C      0.504150000000     0.383100000000     0.634440000000     0.0329789  
C429     C      0.021250000000     0.160630000000     0.675620000000     0.0321637  
C430     C      0.021530000000     0.113850000000     0.630820000000     0.0328348  
C431     C      0.529320000000     0.140190000000     0.604320000000     0.033484   
C432     C      0.530420000000     0.187130000000     0.648960000000     0.0321353  
C433     C      0.010580000000     0.596960000000     0.192080000000     0.39943    
C434     C      0.614100000000     0.020480000000     0.324570000000     0.404921   
C435     C      0.020400000000     0.617200000000     0.323010000000     0.401939   
C436     C      0.596490000000     0.014990000000     0.194330000000     0.399424   
C437     C      0.530980000000     0.939370000000     0.211310000000     0.398887   
C438     C      0.956610000000     0.542350000000     0.337580000000     0.392758   
C439     C      0.936720000000     0.531430000000     0.212280000000     0.396264   
C440     C      0.538240000000     0.957340000000     0.335570000000     0.391928   
C441     C      0.540370000000     0.702300000000     0.086160000000     0.399639   
C442     C      0.944890000000     0.840380000000     0.509650000000     0.403545   
C443     C      0.538730000000     0.840050000000     0.100080000000     0.400133   
C444     C      0.951650000000     0.711310000000     0.505220000000     0.388724   
C445     C      0.020260000000     0.721090000000     0.429920000000     0.39499    
C446     C      0.606730000000     0.841920000000     0.026080000000     0.382578   
C447     C      0.612390000000     0.720310000000     0.019990000000     0.39781    
C448     C      0.016630000000     0.850930000000     0.442430000000     0.394179   
C449     C      0.835180000000     0.534790000000     0.103160000000     0.392667   
C450     C      0.714320000000     0.949330000000     0.507640000000     0.382587   
C451     C      0.703630000000     0.539900000000     0.089170000000     0.395639   
C452     C      0.836110000000     0.943870000000     0.513660000000     0.39841    
C453     C      0.852140000000     0.016200000000     0.445250000000     0.398637   
C454     C      0.716070000000     0.611390000000     0.023810000000     0.402941   
C455     C      0.844810000000     0.604640000000     0.028490000000     0.388879   
C456     C      0.716040000000     0.016010000000     0.433260000000     0.402256   
C457     C      0.883920000000     0.857930000000     0.491410000000     0.033369   
C458     C      0.911420000000     0.885130000000     0.543170000000     0.0333953  
C459     C      0.883050000000     0.910980000000     0.544710000000     0.0323158  
C460     C      0.855560000000     0.884370000000     0.492660000000     0.0324459  
C461     C      0.912600000000     0.677830000000     0.045700000000     0.0341858  
C462     C      0.902670000000     0.673730000000     0.482480000000     0.0335045  
C463     C      0.876860000000     0.645150000000     0.488380000000     0.0345678  
C464     C      0.883840000000     0.652230000000     0.051720000000     0.0335249  
C465     C      0.648470000000     0.874830000000     0.487530000000     0.0337092  
C466     C      0.654730000000     0.879500000000     0.051090000000     0.0329208  
C467     C      0.680660000000     0.908330000000     0.046410000000     0.0334778  
C468     C      0.677300000000     0.900740000000     0.482900000000     0.032971   
C469     C      0.645590000000     0.673540000000     0.988900000000     0.032792   
C470     C      0.671500000000     0.700420000000     0.041580000000     0.0324236  
C471     C      0.697980000000     0.672080000000     0.042750000000     0.0333622  
C472     C      0.671510000000     0.645190000000     0.990340000000     0.0338534  
C473     C      0.939950000000     0.032130000000     0.398840000000     0.0325429  
C474     C      0.892570000000     0.534250000000     0.354770000000     0.031081   
C475     C      0.866250000000     0.526010000000     0.382020000000     0.0322713  
C476     C      0.913920000000     0.025580000000     0.425830000000     0.0334508  
C477     C      0.671830000000     0.049320000000     0.399470000000     0.033134   
C478     C      0.697490000000     0.994570000000     0.374650000000     0.0327533  
C479     C      0.671430000000     0.995750000000     0.346460000000     0.0327395  
C480     C      0.646810000000     0.051030000000     0.371150000000     0.0330983  
C481     C      0.641380000000     0.531620000000     0.107220000000     0.0337954  
C482     C      0.687660000000     0.533600000000     0.152420000000     0.0318131  
C483     C      0.660520000000     0.025660000000     0.178940000000     0.0322509  
C484     C      0.614490000000     0.025400000000     0.133440000000     0.0328378  
C485     C      0.902700000000     0.999180000000     0.167330000000     0.0326352  
C486     C      0.878960000000     0.555460000000     0.190420000000     0.0316545  
C487     C      0.852920000000     0.556290000000     0.162090000000     0.0315784  
C488     C      0.877650000000     0.000540000000     0.138760000000     0.0313146  
C489     C      0.053420000000     0.651320000000     0.367170000000     0.0329977  
C490     C      0.497400000000     0.675690000000     0.344110000000     0.0323462  
C491     C      0.497540000000     0.702520000000     0.371720000000     0.0317545  
C492     C      0.053220000000     0.677410000000     0.394760000000     0.0319649  
C493     C      0.530320000000     0.892790000000     0.351730000000     0.0311853  
C494     C      0.528270000000     0.939570000000     0.396470000000     0.0324278  
C495     C      0.023240000000     0.912970000000     0.423180000000     0.0337149  
C496     C      0.023210000000     0.865800000000     0.378790000000     0.0318267  
C497     C      0.501240000000     0.906970000000     0.163780000000     0.0320418  
C498     C      0.556670000000     0.882830000000     0.188390000000     0.0317851  
C499     C      0.558830000000     0.857680000000     0.159420000000     0.0325975  
C500     C      0.504150000000     0.883100000000     0.134450000000     0.0329985  
C501     C      0.021250000000     0.660630000000     0.175620000000     0.0320969  
C502     C      0.021530000000     0.613850000000     0.130820000000     0.032888   
C503     C      0.529320000000     0.640190000000     0.104320000000     0.0334431  
C504     C      0.530420000000     0.687130000000     0.148960000000     0.0321914  
C505     C      0.010580000000     0.596960000000     0.692080000000     0.399416   
C506     C      0.614100000000     0.020480000000     0.824560000000     0.405029   
C507     C      0.020400000000     0.617200000000     0.823010000000     0.401952   
C508     C      0.596490000000     0.014990000000     0.694330000000     0.399425   
C509     C      0.530980000000     0.939370000000     0.711310000000     0.398866   
C510     C      0.956610000000     0.542350000000     0.837580000000     0.392772   
C511     C      0.936720000000     0.531430000000     0.712280000000     0.396253   
C512     C      0.538240000000     0.957340000000     0.835570000000     0.391933   
C513     C      0.540370000000     0.702300000000     0.586160000000     0.399709   
C514     C      0.944880000000     0.840380000000     0.009650000000     0.402842   
C515     C      0.538730000000     0.840050000000     0.600080000000     0.400004   
C516     C      0.951650000000     0.711310000000     0.005220000000     0.388314   
C517     C      0.020260000000     0.721090000000     0.929920000000     0.394973   
C518     C      0.606730000000     0.841920000000     0.526080000000     0.38262    
C519     C      0.612390000000     0.720310000000     0.519990000000     0.398421   
C520     C      0.016630000000     0.850930000000     0.942430000000     0.394146   
C521     C      0.835180000000     0.534800000000     0.603160000000     0.39261    
C522     C      0.714330000000     0.949330000000     0.007640000000     0.382128   
C523     C      0.703630000000     0.539900000000     0.589170000000     0.39565    
C524     C      0.836100000000     0.943870000000     0.013660000000     0.397925   
C525     C      0.852140000000     0.016200000000     0.945260000000     0.398716   
C526     C      0.716070000000     0.611390000000     0.523810000000     0.402973   
C527     C      0.844810000000     0.604640000000     0.528490000000     0.388912   
C528     C      0.716040000000     0.016010000000     0.933260000000     0.402277   
C529     C      0.883920000000     0.857930000000     0.991420000000     0.0338329  
C530     C      0.911420000000     0.885130000000     0.043170000000     0.0333141  
C531     C      0.883050000000     0.910970000000     0.044710000000     0.0321988  
C532     C      0.855560000000     0.884360000000     0.992660000000     0.0326815  
C533     C      0.912600000000     0.677840000000     0.545700000000     0.0342482  
C534     C      0.902670000000     0.673730000000     0.982470000000     0.0337912  
C535     C      0.876860000000     0.645140000000     0.988370000000     0.0349689  
C536     C      0.883840000000     0.652230000000     0.551720000000     0.0336401  
C537     C      0.648470000000     0.874820000000     0.987520000000     0.0340537  
C538     C      0.654730000000     0.879500000000     0.551090000000     0.0330361  
C539     C      0.680660000000     0.908330000000     0.546410000000     0.033537   
C540     C      0.677300000000     0.900740000000     0.982900000000     0.0333568  
C541     C      0.645600000000     0.673540000000     0.488900000000     0.0324843  
C542     C      0.671500000000     0.700420000000     0.541580000000     0.0325113  
C543     C      0.697980000000     0.672080000000     0.542750000000     0.0334173  
C544     C      0.671510000000     0.645190000000     0.490340000000     0.0334351  
C545     C      0.939950000000     0.032130000000     0.898840000000     0.0324949  
C546     C      0.892570000000     0.534250000000     0.854770000000     0.0310896  
C547     C      0.866250000000     0.526010000000     0.882020000000     0.0322765  
C548     C      0.913920000000     0.025580000000     0.925830000000     0.0334823  
C549     C      0.671830000000     0.049320000000     0.899470000000     0.033143   
C550     C      0.697490000000     0.994570000000     0.874650000000     0.0327879  
C551     C      0.671430000000     0.995750000000     0.846460000000     0.0326988  
C552     C      0.646810000000     0.051030000000     0.871150000000     0.0331282  
C553     C      0.641370000000     0.531620000000     0.607220000000     0.0337144  
C554     C      0.687660000000     0.533600000000     0.652420000000     0.0318079  
C555     C      0.660520000000     0.025660000000     0.678940000000     0.0322497  
C556     C      0.614490000000     0.025400000000     0.633440000000     0.032845   
C557     C      0.902700000000     0.999180000000     0.667330000000     0.0326354  
C558     C      0.878960000000     0.555460000000     0.690420000000     0.0316527  
C559     C      0.852920000000     0.556290000000     0.662090000000     0.031578   
C560     C      0.877650000000     0.000540000000     0.638760000000     0.0313266  
C561     C      0.053420000000     0.651320000000     0.867160000000     0.0330569  
C562     C      0.497400000000     0.675690000000     0.844110000000     0.0323727  
C563     C      0.497540000000     0.702520000000     0.871710000000     0.0317075  
C564     C      0.053220000000     0.677410000000     0.894760000000     0.0319588  
C565     C      0.530320000000     0.892790000000     0.851730000000     0.0311938  
C566     C      0.528270000000     0.939570000000     0.896470000000     0.0324974  
C567     C      0.023240000000     0.912970000000     0.923190000000     0.0336634  
C568     C      0.023210000000     0.865800000000     0.878790000000     0.0318497  
C569     C      0.501240000000     0.906970000000     0.663780000000     0.0320672  
C570     C      0.556670000000     0.882830000000     0.688390000000     0.0317891  
C571     C      0.558830000000     0.857680000000     0.659420000000     0.032589   
C572     C      0.504150000000     0.883100000000     0.634440000000     0.0329857  
C573     C      0.021250000000     0.660630000000     0.675620000000     0.0320954  
C574     C      0.021530000000     0.613850000000     0.630820000000     0.0328977  
C575     C      0.529310000000     0.640190000000     0.604320000000     0.0334899  
C576     C      0.530420000000     0.687130000000     0.648960000000     0.032145   
Co1      Co     0.516630000000     0.018620000000     0.216020000000     0.885755   
Co2      Co     0.035100000000     0.537260000000     0.315490000000     0.891492   
Co3      Co     0.487130000000     0.069270000000     0.265620000000     0.795229   
Co4      Co     0.067030000000     0.489470000000     0.265720000000     0.799817   
Co5      Co     0.031970000000     0.226270000000     0.010120000000     0.863961   
Co6      Co     0.526210000000     0.331100000000     0.519720000000     0.866168   
Co7      Co     0.065140000000     0.276840000000     0.057490000000     0.810714   
Co8      Co     0.488400000000     0.279550000000     0.476240000000     0.812225   
Co9      Co     0.330320000000     0.024430000000     0.022530000000     0.8653     
Co10     Co     0.225390000000     0.530060000000     0.513050000000     0.869666   
Co11     Co     0.276580000000     0.067350000000     0.057130000000     0.808932   
Co12     Co     0.279280000000     0.490640000000     0.475960000000     0.809832   
Co13     Co     0.516630000000     0.018630000000     0.716020000000     0.885788   
Co14     Co     0.035100000000     0.537260000000     0.815490000000     0.891452   
Co15     Co     0.487130000000     0.069270000000     0.765630000000     0.795182   
Co16     Co     0.067030000000     0.489470000000     0.765720000000     0.799805   
Co17     Co     0.031970000000     0.226270000000     0.510120000000     0.864701   
Co18     Co     0.526210000000     0.331100000000     0.019720000000     0.86566    
Co19     Co     0.065140000000     0.276840000000     0.557490000000     0.81073    
Co20     Co     0.488400000000     0.279550000000     0.976240000000     0.812741   
Co21     Co     0.330320000000     0.024430000000     0.522530000000     0.865622   
Co22     Co     0.225390000000     0.530060000000     0.013050000000     0.86932    
Co23     Co     0.276580000000     0.067350000000     0.557130000000     0.808755   
Co24     Co     0.279280000000     0.490640000000     0.975950000000     0.810422   
Co25     Co     0.516630000000     0.518620000000     0.216020000000     0.886001   
Co26     Co     0.035110000000     0.037260000000     0.315490000000     0.89128    
Co27     Co     0.487130000000     0.569280000000     0.265620000000     0.795385   
Co28     Co     0.067030000000     0.989470000000     0.265720000000     0.800068   
Co29     Co     0.031970000000     0.726270000000     0.010120000000     0.864025   
Co30     Co     0.526210000000     0.831100000000     0.519720000000     0.866114   
Co31     Co     0.065140000000     0.776850000000     0.057490000000     0.810685   
Co32     Co     0.488400000000     0.779550000000     0.476240000000     0.812236   
Co33     Co     0.330320000000     0.524430000000     0.022530000000     0.865461   
Co34     Co     0.225390000000     0.030060000000     0.513050000000     0.869549   
Co35     Co     0.276580000000     0.567350000000     0.057130000000     0.808847   
Co36     Co     0.279280000000     0.990640000000     0.475960000000     0.810119   
Co37     Co     0.516630000000     0.518620000000     0.716020000000     0.886035   
Co38     Co     0.035110000000     0.037260000000     0.815490000000     0.891237   
Co39     Co     0.487130000000     0.569280000000     0.765630000000     0.795372   
Co40     Co     0.067030000000     0.989470000000     0.765720000000     0.800065   
Co41     Co     0.031970000000     0.726270000000     0.510110000000     0.864729   
Co42     Co     0.526210000000     0.831100000000     0.019720000000     0.865628   
Co43     Co     0.065140000000     0.776850000000     0.557490000000     0.810765   
Co44     Co     0.488400000000     0.779550000000     0.976240000000     0.812725   
Co45     Co     0.330320000000     0.524430000000     0.522530000000     0.865804   
Co46     Co     0.225390000000     0.030060000000     0.013050000000     0.86913    
Co47     Co     0.276580000000     0.567350000000     0.557130000000     0.808786   
Co48     Co     0.279280000000     0.990640000000     0.975950000000     0.810705   
Co49     Co     0.016630000000     0.018630000000     0.216020000000     0.885655   
Co50     Co     0.535110000000     0.537260000000     0.315490000000     0.891637   
Co51     Co     0.987130000000     0.069270000000     0.265620000000     0.795535   
Co52     Co     0.567030000000     0.489470000000     0.265720000000     0.799756   
Co53     Co     0.531970000000     0.226270000000     0.010120000000     0.864046   
Co54     Co     0.026210000000     0.331100000000     0.519710000000     0.866022   
Co55     Co     0.565140000000     0.276840000000     0.057490000000     0.810713   
Co56     Co     0.988400000000     0.279550000000     0.476240000000     0.812446   
Co57     Co     0.830320000000     0.024430000000     0.022530000000     0.865222   
Co58     Co     0.725400000000     0.530060000000     0.513050000000     0.869749   
Co59     Co     0.776580000000     0.067350000000     0.057130000000     0.808938   
Co60     Co     0.779280000000     0.490640000000     0.475960000000     0.80981    
Co61     Co     0.016630000000     0.018630000000     0.716020000000     0.885689   
Co62     Co     0.535110000000     0.537260000000     0.815490000000     0.891599   
Co63     Co     0.987130000000     0.069270000000     0.765630000000     0.795521   
Co64     Co     0.567030000000     0.489470000000     0.765720000000     0.799746   
Co65     Co     0.531970000000     0.226270000000     0.510120000000     0.864891   
Co66     Co     0.026210000000     0.331100000000     0.019720000000     0.865538   
Co67     Co     0.565140000000     0.276840000000     0.557490000000     0.810706   
Co68     Co     0.988400000000     0.279550000000     0.976240000000     0.812961   
Co69     Co     0.830320000000     0.024430000000     0.522530000000     0.865536   
Co70     Co     0.725400000000     0.530060000000     0.013050000000     0.869172   
Co71     Co     0.776580000000     0.067350000000     0.557130000000     0.808741   
Co72     Co     0.779280000000     0.490640000000     0.975950000000     0.81039    
Co73     Co     0.016630000000     0.518630000000     0.216020000000     0.88584    
Co74     Co     0.535110000000     0.037260000000     0.315490000000     0.891422   
Co75     Co     0.987130000000     0.569280000000     0.265620000000     0.795527   
Co76     Co     0.567030000000     0.989470000000     0.265720000000     0.800054   
Co77     Co     0.531970000000     0.726270000000     0.010120000000     0.864104   
Co78     Co     0.026210000000     0.831100000000     0.519710000000     0.865969   
Co79     Co     0.565140000000     0.776850000000     0.057490000000     0.810677   
Co80     Co     0.988400000000     0.779550000000     0.476240000000     0.812407   
Co81     Co     0.830320000000     0.524430000000     0.022530000000     0.865465   
Co82     Co     0.725400000000     0.030060000000     0.513050000000     0.869564   
Co83     Co     0.776580000000     0.567350000000     0.057130000000     0.80883    
Co84     Co     0.779280000000     0.990640000000     0.475960000000     0.810099   
Co85     Co     0.016630000000     0.518630000000     0.716020000000     0.885871   
Co86     Co     0.535110000000     0.037260000000     0.815490000000     0.891395   
Co87     Co     0.987130000000     0.569280000000     0.765630000000     0.795511   
Co88     Co     0.567030000000     0.989470000000     0.765720000000     0.800085   
Co89     Co     0.531970000000     0.726270000000     0.510120000000     0.864946   
Co90     Co     0.026210000000     0.831100000000     0.019720000000     0.8655     
Co91     Co     0.565140000000     0.776850000000     0.557490000000     0.810702   
Co92     Co     0.988400000000     0.779550000000     0.976240000000     0.812967   
Co93     Co     0.830320000000     0.524430000000     0.522530000000     0.86575    
Co94     Co     0.725400000000     0.030060000000     0.013050000000     0.869141   
Co95     Co     0.776580000000     0.567350000000     0.557130000000     0.808788   
Co96     Co     0.779280000000     0.990640000000     0.975950000000     0.810689   
H1       H      0.383520000000     0.337670000000     0.469630000000     0.0460326  
H2       H      0.432830000000     0.386520000000     0.563820000000     0.0428271  
H3       H      0.383970000000     0.431330000000     0.566400000000     0.043616   
H4       H      0.334430000000     0.383640000000     0.471710000000     0.0460453  
H5       H      0.427020000000     0.189300000000     0.069010000000     0.0402846  
H6       H      0.409440000000     0.181360000000     0.454750000000     0.0411281  
H7       H      0.364190000000     0.131880000000     0.465000000000     0.0398848  
H8       H      0.377300000000     0.144320000000     0.079430000000     0.0404538  
H9       H      0.135460000000     0.363150000000     0.463530000000     0.0381277  
H10      H      0.146410000000     0.372120000000     0.078480000000     0.0416284  
H11      H      0.191820000000     0.421870000000     0.070360000000     0.0381979  
H12      H      0.185220000000     0.408500000000     0.455500000000     0.0419284  
H13      H      0.125510000000     0.172860000000     0.966960000000     0.0437998  
H14      H      0.171930000000     0.221290000000     0.062800000000     0.046143   
H15      H      0.217970000000     0.172230000000     0.064760000000     0.0461043  
H16      H      0.170420000000     0.124040000000     0.969380000000     0.0430277  
H17      H      0.468700000000     0.534190000000     0.407330000000     0.0475771  
H18      H      0.383140000000     0.037480000000     0.326980000000     0.0417935  
H19      H      0.337300000000     0.023830000000     0.374350000000     0.0432531  
H20      H      0.424090000000     0.522570000000     0.453410000000     0.0466888  
H21      H      0.171030000000     0.571300000000     0.419620000000     0.0430649  
H22      H      0.216920000000     0.471600000000     0.375450000000     0.0446921  
H23      H      0.171460000000     0.473600000000     0.326510000000     0.0440048  
H24      H      0.127670000000     0.574290000000     0.370930000000     0.0451177  
H25      H      0.132020000000     0.033750000000     0.079280000000     0.0475493  
H26      H      0.216320000000     0.036560000000     0.160850000000     0.0418905  
H27      H      0.169130000000     0.523420000000     0.207070000000     0.0432834  
H28      H      0.086040000000     0.522670000000     0.124210000000     0.0464127  
H29      H      0.421620000000     0.475770000000     0.168130000000     0.0444218  
H30      H      0.379260000000     0.078220000000     0.209690000000     0.0440812  
H31      H      0.334000000000     0.079640000000     0.160680000000     0.0455817  
H32      H      0.378250000000     0.478160000000     0.119050000000     0.0419868  
H33      H      0.576420000000     0.131910000000     0.366490000000     0.0447719  
H34      H      0.974420000000     0.175320000000     0.325120000000     0.0438727  
H35      H      0.974600000000     0.221950000000     0.373000000000     0.0456848  
H36      H      0.575960000000     0.176960000000     0.414070000000     0.0426796  
H37      H      0.033140000000     0.383850000000     0.323750000000     0.041632   
H38      H      0.029860000000     0.468270000000     0.405340000000     0.0476512  
H39      H      0.520660000000     0.422770000000     0.450950000000     0.0470019  
H40      H      0.521370000000     0.336850000000     0.370910000000     0.0414825  
H41      H      0.977670000000     0.425690000000     0.164190000000     0.0448627  
H42      H      0.078530000000     0.382600000000     0.208620000000     0.0441515  
H43      H      0.082170000000     0.338720000000     0.158470000000     0.0447129  
H44      H      0.982620000000     0.384180000000     0.113880000000     0.0424265  
H45      H      0.518390000000     0.169800000000     0.203540000000     0.0434516  
H46      H      0.518520000000     0.085260000000     0.122000000000     0.0463898  
H47      H      0.032050000000     0.130450000000     0.076570000000     0.0470744  
H48      H      0.033600000000     0.215860000000     0.157190000000     0.0436248  
H49      H      0.383520000000     0.337660000000     0.969630000000     0.0460051  
H50      H      0.432830000000     0.386520000000     0.063830000000     0.0428152  
H51      H      0.383960000000     0.431330000000     0.066400000000     0.0436353  
H52      H      0.334430000000     0.383640000000     0.971710000000     0.0460588  
H53      H      0.427020000000     0.189300000000     0.569010000000     0.0402848  
H54      H      0.409440000000     0.181360000000     0.954740000000     0.0411237  
H55      H      0.364190000000     0.131880000000     0.964990000000     0.0398823  
H56      H      0.377300000000     0.144320000000     0.579430000000     0.0404387  
H57      H      0.135460000000     0.363150000000     0.963530000000     0.0381479  
H58      H      0.146410000000     0.372120000000     0.578480000000     0.0416156  
H59      H      0.191820000000     0.421870000000     0.570360000000     0.0382079  
H60      H      0.185220000000     0.408500000000     0.955490000000     0.041896   
H61      H      0.125520000000     0.172870000000     0.466960000000     0.0438213  
H62      H      0.171930000000     0.221300000000     0.562800000000     0.0461508  
H63      H      0.217970000000     0.172230000000     0.564760000000     0.0461269  
H64      H      0.170420000000     0.124040000000     0.469380000000     0.0430106  
H65      H      0.468700000000     0.534180000000     0.907320000000     0.0476392  
H66      H      0.383140000000     0.037480000000     0.826980000000     0.0417875  
H67      H      0.337300000000     0.023830000000     0.874350000000     0.0432639  
H68      H      0.424090000000     0.522570000000     0.953410000000     0.0467673  
H69      H      0.171030000000     0.571300000000     0.919620000000     0.0431087  
H70      H      0.216920000000     0.471600000000     0.875440000000     0.044707   
H71      H      0.171460000000     0.473600000000     0.826500000000     0.044001   
H72      H      0.127670000000     0.574290000000     0.870930000000     0.0451284  
H73      H      0.132020000000     0.033750000000     0.579280000000     0.0475975  
H74      H      0.216320000000     0.036560000000     0.660850000000     0.0418991  
H75      H      0.169130000000     0.523420000000     0.707070000000     0.0432798  
H76      H      0.086040000000     0.522670000000     0.624210000000     0.0464333  
H77      H      0.421620000000     0.475780000000     0.668130000000     0.0444367  
H78      H      0.379260000000     0.078220000000     0.709690000000     0.0440781  
H79      H      0.334000000000     0.079640000000     0.660680000000     0.045592   
H80      H      0.378250000000     0.478160000000     0.619040000000     0.0420038  
H81      H      0.576420000000     0.131910000000     0.866490000000     0.0447798  
H82      H      0.974420000000     0.175320000000     0.825120000000     0.0438743  
H83      H      0.974600000000     0.221950000000     0.873000000000     0.0456868  
H84      H      0.575960000000     0.176960000000     0.914060000000     0.0426969  
H85      H      0.033140000000     0.383850000000     0.823750000000     0.041636   
H86      H      0.029860000000     0.468270000000     0.905340000000     0.0476605  
H87      H      0.520660000000     0.422770000000     0.950950000000     0.0471017  
H88      H      0.521370000000     0.336850000000     0.870910000000     0.041483   
H89      H      0.977670000000     0.425690000000     0.664190000000     0.0448578  
H90      H      0.078530000000     0.382600000000     0.708620000000     0.0441519  
H91      H      0.082170000000     0.338720000000     0.658470000000     0.0447113  
H92      H      0.982620000000     0.384180000000     0.613880000000     0.0424421  
H93      H      0.518390000000     0.169800000000     0.703540000000     0.0434435  
H94      H      0.518510000000     0.085260000000     0.622000000000     0.0464166  
H95      H      0.032050000000     0.130450000000     0.576570000000     0.0471185  
H96      H      0.033600000000     0.215860000000     0.657190000000     0.0436366  
H97      H      0.383520000000     0.837660000000     0.469630000000     0.0460366  
H98      H      0.432830000000     0.886520000000     0.563820000000     0.0428351  
H99      H      0.383970000000     0.931340000000     0.566400000000     0.0436379  
H100     H      0.334430000000     0.883640000000     0.471710000000     0.0460537  
H101     H      0.427020000000     0.689300000000     0.069010000000     0.0402816  
H102     H      0.409440000000     0.681360000000     0.454750000000     0.041123   
H103     H      0.364190000000     0.631880000000     0.465000000000     0.0398854  
H104     H      0.377300000000     0.644320000000     0.079430000000     0.0404549  
H105     H      0.135460000000     0.863150000000     0.463530000000     0.038142   
H106     H      0.146410000000     0.872120000000     0.078480000000     0.0416383  
H107     H      0.191820000000     0.921870000000     0.070360000000     0.038224   
H108     H      0.185220000000     0.908500000000     0.455490000000     0.0419306  
H109     H      0.125510000000     0.672860000000     0.966960000000     0.0438006  
H110     H      0.171930000000     0.721300000000     0.062800000000     0.0461431  
H111     H      0.217970000000     0.672230000000     0.064760000000     0.0461056  
H112     H      0.170420000000     0.624040000000     0.969380000000     0.0430306  
H113     H      0.468700000000     0.034180000000     0.407320000000     0.0475636  
H114     H      0.383140000000     0.537480000000     0.326980000000     0.0418057  
H115     H      0.337300000000     0.523830000000     0.374350000000     0.0432917  
H116     H      0.424100000000     0.022560000000     0.453410000000     0.0466728  
H117     H      0.171030000000     0.071310000000     0.419620000000     0.0430431  
H118     H      0.216920000000     0.971600000000     0.375450000000     0.0447283  
H119     H      0.171460000000     0.973600000000     0.326500000000     0.0439954  
H120     H      0.127670000000     0.074290000000     0.370920000000     0.0451373  
H121     H      0.132020000000     0.533750000000     0.079280000000     0.0475671  
H122     H      0.216320000000     0.536560000000     0.160850000000     0.0419072  
H123     H      0.169130000000     0.023430000000     0.207070000000     0.0432573  
H124     H      0.086040000000     0.022670000000     0.124210000000     0.0463894  
H125     H      0.421620000000     0.975770000000     0.168140000000     0.044369   
H126     H      0.379260000000     0.578220000000     0.209700000000     0.0441012  
H127     H      0.334000000000     0.579640000000     0.160680000000     0.0455777  
H128     H      0.378240000000     0.978160000000     0.119050000000     0.0422144  
H129     H      0.576420000000     0.631910000000     0.366490000000     0.0447747  
H130     H      0.974420000000     0.675320000000     0.325120000000     0.0438719  
H131     H      0.974600000000     0.721950000000     0.373000000000     0.0456821  
H132     H      0.575960000000     0.676960000000     0.414070000000     0.0426792  
H133     H      0.033140000000     0.883850000000     0.323750000000     0.0416238  
H134     H      0.029860000000     0.968260000000     0.405340000000     0.047701   
H135     H      0.520660000000     0.922770000000     0.450950000000     0.0470267  
H136     H      0.521370000000     0.836850000000     0.370910000000     0.0414772  
H137     H      0.977670000000     0.925690000000     0.164190000000     0.0448899  
H138     H      0.078530000000     0.882600000000     0.208620000000     0.0441646  
H139     H      0.082170000000     0.838720000000     0.158470000000     0.0447167  
H140     H      0.982620000000     0.884180000000     0.113880000000     0.0424319  
H141     H      0.518390000000     0.669800000000     0.203540000000     0.0434491  
H142     H      0.518510000000     0.585260000000     0.122000000000     0.0463997  
H143     H      0.032050000000     0.630450000000     0.076570000000     0.0470865  
H144     H      0.033600000000     0.715860000000     0.157190000000     0.0436237  
H145     H      0.383520000000     0.837660000000     0.969630000000     0.0460089  
H146     H      0.432830000000     0.886520000000     0.063820000000     0.0428342  
H147     H      0.383960000000     0.931330000000     0.066400000000     0.0436491  
H148     H      0.334430000000     0.883640000000     0.971710000000     0.0460668  
H149     H      0.427020000000     0.689300000000     0.569010000000     0.0402802  
H150     H      0.409440000000     0.681360000000     0.954750000000     0.0411072  
H151     H      0.364190000000     0.631880000000     0.965000000000     0.0399092  
H152     H      0.377300000000     0.644320000000     0.579430000000     0.0404362  
H153     H      0.135460000000     0.863150000000     0.963530000000     0.0381504  
H154     H      0.146410000000     0.872120000000     0.578480000000     0.0416412  
H155     H      0.191820000000     0.921870000000     0.570360000000     0.0382277  
H156     H      0.185220000000     0.908500000000     0.955490000000     0.0419065  
H157     H      0.125520000000     0.672870000000     0.466960000000     0.0438227  
H158     H      0.171930000000     0.721300000000     0.562800000000     0.0461509  
H159     H      0.217970000000     0.672230000000     0.564760000000     0.0461209  
H160     H      0.170420000000     0.624040000000     0.469380000000     0.0430132  
H161     H      0.468700000000     0.034180000000     0.907320000000     0.0476208  
H162     H      0.383140000000     0.537480000000     0.826980000000     0.041799   
H163     H      0.337290000000     0.523830000000     0.874360000000     0.043308   
H164     H      0.424100000000     0.022560000000     0.953410000000     0.0467312  
H165     H      0.171030000000     0.071300000000     0.919620000000     0.0430976  
H166     H      0.216920000000     0.971600000000     0.875440000000     0.0447313  
H167     H      0.171460000000     0.973600000000     0.826500000000     0.0439793  
H168     H      0.127670000000     0.074290000000     0.870920000000     0.0451472  
H169     H      0.132020000000     0.533750000000     0.579280000000     0.0476228  
H170     H      0.216320000000     0.536560000000     0.660850000000     0.0419078  
H171     H      0.169130000000     0.023420000000     0.707070000000     0.0432462  
H172     H      0.086040000000     0.022670000000     0.624210000000     0.0464085  
H173     H      0.421620000000     0.975770000000     0.668140000000     0.0443565  
H174     H      0.379260000000     0.578220000000     0.709700000000     0.044101   
H175     H      0.334000000000     0.579640000000     0.660690000000     0.0455707  
H176     H      0.378240000000     0.978160000000     0.619050000000     0.0422343  
H177     H      0.576420000000     0.631910000000     0.866490000000     0.0447828  
H178     H      0.974420000000     0.675320000000     0.825120000000     0.0438678  
H179     H      0.974600000000     0.721950000000     0.873000000000     0.0456868  
H180     H      0.575960000000     0.676960000000     0.914060000000     0.0426963  
H181     H      0.033140000000     0.883850000000     0.823750000000     0.0416289  
H182     H      0.029860000000     0.968260000000     0.905340000000     0.0477118  
H183     H      0.520660000000     0.922770000000     0.950950000000     0.0471226  
H184     H      0.521370000000     0.836850000000     0.870910000000     0.0414824  
H185     H      0.977670000000     0.925690000000     0.664190000000     0.0448937  
H186     H      0.078530000000     0.882600000000     0.708620000000     0.0441626  
H187     H      0.082170000000     0.838720000000     0.658470000000     0.0447178  
H188     H      0.982620000000     0.884180000000     0.613880000000     0.0424485  
H189     H      0.518390000000     0.669800000000     0.703540000000     0.043442   
H190     H      0.518510000000     0.585260000000     0.622000000000     0.046426   
H191     H      0.032050000000     0.630450000000     0.576570000000     0.0471382  
H192     H      0.033600000000     0.715860000000     0.657190000000     0.0436239  
H193     H      0.883520000000     0.337660000000     0.469630000000     0.046046   
H194     H      0.932830000000     0.386520000000     0.563820000000     0.0428542  
H195     H      0.883970000000     0.431330000000     0.566400000000     0.0436229  
H196     H      0.834430000000     0.383640000000     0.471710000000     0.0460491  
H197     H      0.927020000000     0.189300000000     0.069010000000     0.0403146  
H198     H      0.909440000000     0.181360000000     0.454750000000     0.0411325  
H199     H      0.864190000000     0.131880000000     0.465000000000     0.0399131  
H200     H      0.877300000000     0.144320000000     0.079430000000     0.0404559  
H201     H      0.635460000000     0.363150000000     0.463530000000     0.0381291  
H202     H      0.646410000000     0.372120000000     0.078480000000     0.0416285  
H203     H      0.691820000000     0.421870000000     0.070360000000     0.038205   
H204     H      0.685220000000     0.408500000000     0.455500000000     0.0419411  
H205     H      0.625510000000     0.172860000000     0.966960000000     0.0438035  
H206     H      0.671930000000     0.221290000000     0.062800000000     0.0461449  
H207     H      0.717970000000     0.172230000000     0.064760000000     0.046105   
H208     H      0.670410000000     0.124030000000     0.969380000000     0.0430232  
H209     H      0.968700000000     0.534190000000     0.407330000000     0.0476393  
H210     H      0.883140000000     0.037480000000     0.326980000000     0.0417977  
H211     H      0.837300000000     0.023830000000     0.374350000000     0.0432544  
H212     H      0.924100000000     0.522570000000     0.453410000000     0.0467159  
H213     H      0.671030000000     0.571310000000     0.419620000000     0.0430461  
H214     H      0.716920000000     0.471600000000     0.375450000000     0.0447206  
H215     H      0.671460000000     0.473600000000     0.326510000000     0.0439754  
H216     H      0.627670000000     0.574290000000     0.370930000000     0.0451324  
H217     H      0.632020000000     0.033740000000     0.079280000000     0.0475568  
H218     H      0.716320000000     0.036560000000     0.160850000000     0.041891   
H219     H      0.669130000000     0.523420000000     0.207070000000     0.0432832  
H220     H      0.586040000000     0.522670000000     0.124210000000     0.0464185  
H221     H      0.921620000000     0.475770000000     0.168140000000     0.0444484  
H222     H      0.879260000000     0.078220000000     0.209690000000     0.0440871  
H223     H      0.834000000000     0.079650000000     0.160680000000     0.0455766  
H224     H      0.878250000000     0.478160000000     0.119050000000     0.0419891  
H225     H      0.076430000000     0.131910000000     0.366490000000     0.0447875  
H226     H      0.474420000000     0.175320000000     0.325110000000     0.0438815  
H227     H      0.474600000000     0.221960000000     0.373000000000     0.0456804  
H228     H      0.075960000000     0.176970000000     0.414060000000     0.0426724  
H229     H      0.533140000000     0.383850000000     0.323750000000     0.0416285  
H230     H      0.529860000000     0.468260000000     0.405340000000     0.0476758  
H231     H      0.020660000000     0.422780000000     0.450950000000     0.0469749  
H232     H      0.021370000000     0.336850000000     0.370910000000     0.0414568  
H233     H      0.477670000000     0.425690000000     0.164190000000     0.0447292  
H234     H      0.578520000000     0.382600000000     0.208630000000     0.044157   
H235     H      0.582170000000     0.338720000000     0.158470000000     0.0447183  
H236     H      0.482620000000     0.384180000000     0.113880000000     0.0422911  
H237     H      0.018390000000     0.169800000000     0.203540000000     0.0434128  
H238     H      0.018510000000     0.085260000000     0.122000000000     0.0463776  
H239     H      0.532060000000     0.130450000000     0.076570000000     0.0470958  
H240     H      0.533600000000     0.215860000000     0.157190000000     0.0436339  
H241     H      0.883520000000     0.337660000000     0.969630000000     0.0460004  
H242     H      0.932830000000     0.386520000000     0.063820000000     0.0428224  
H243     H      0.883970000000     0.431330000000     0.066400000000     0.0436402  
H244     H      0.834430000000     0.383640000000     0.971710000000     0.0460658  
H245     H      0.927030000000     0.189300000000     0.569010000000     0.0403196  
H246     H      0.909440000000     0.181360000000     0.954740000000     0.0411434  
H247     H      0.864190000000     0.131880000000     0.964990000000     0.039881   
H248     H      0.877300000000     0.144320000000     0.579430000000     0.0404509  
H249     H      0.635460000000     0.363150000000     0.963530000000     0.0381492  
H250     H      0.646410000000     0.372120000000     0.578480000000     0.0416158  
H251     H      0.691820000000     0.421870000000     0.570360000000     0.038209   
H252     H      0.685220000000     0.408500000000     0.955490000000     0.0418998  
H253     H      0.625520000000     0.172870000000     0.466960000000     0.0438165  
H254     H      0.671930000000     0.221300000000     0.562800000000     0.0461496  
H255     H      0.717970000000     0.172230000000     0.564760000000     0.046129   
H256     H      0.670420000000     0.124040000000     0.469380000000     0.043013   
H257     H      0.968700000000     0.534190000000     0.907330000000     0.0476452  
H258     H      0.883140000000     0.037480000000     0.826980000000     0.0417894  
H259     H      0.837300000000     0.023830000000     0.874360000000     0.043277   
H260     H      0.924100000000     0.522570000000     0.953410000000     0.0468092  
H261     H      0.671030000000     0.571300000000     0.919620000000     0.0430936  
H262     H      0.716920000000     0.471600000000     0.875440000000     0.0447308  
H263     H      0.671460000000     0.473600000000     0.826500000000     0.0439733  
H264     H      0.627670000000     0.574290000000     0.870930000000     0.0451593  
H265     H      0.632020000000     0.033740000000     0.579280000000     0.0476039  
H266     H      0.716320000000     0.036560000000     0.660850000000     0.0418921  
H267     H      0.669130000000     0.523420000000     0.707070000000     0.043279   
H268     H      0.586040000000     0.522670000000     0.624210000000     0.046429   
H269     H      0.921620000000     0.475780000000     0.668130000000     0.0444556  
H270     H      0.879260000000     0.078220000000     0.709690000000     0.0440854  
H271     H      0.834000000000     0.079650000000     0.660680000000     0.0455877  
H272     H      0.878250000000     0.478160000000     0.619050000000     0.0420024  
H273     H      0.076430000000     0.131910000000     0.866490000000     0.0448002  
H274     H      0.474420000000     0.175320000000     0.825110000000     0.0438773  
H275     H      0.474600000000     0.221960000000     0.873000000000     0.0457029  
H276     H      0.075960000000     0.176970000000     0.914060000000     0.0426934  
H277     H      0.533140000000     0.383850000000     0.823750000000     0.0416331  
H278     H      0.529860000000     0.468260000000     0.905350000000     0.0476721  
H279     H      0.020660000000     0.422780000000     0.950950000000     0.0470717  
H280     H      0.021370000000     0.336850000000     0.870910000000     0.0414569  
H281     H      0.477670000000     0.425690000000     0.664190000000     0.0447343  
H282     H      0.578520000000     0.382600000000     0.708630000000     0.0441556  
H283     H      0.582170000000     0.338720000000     0.658470000000     0.0447188  
H284     H      0.482620000000     0.384180000000     0.613880000000     0.0423042  
H285     H      0.018390000000     0.169800000000     0.703540000000     0.0434062  
H286     H      0.018510000000     0.085260000000     0.622000000000     0.046405   
H287     H      0.532060000000     0.130450000000     0.576570000000     0.0471416  
H288     H      0.533600000000     0.215860000000     0.657190000000     0.0436456  
H289     H      0.883520000000     0.837660000000     0.469630000000     0.0460492  
H290     H      0.932830000000     0.886520000000     0.563820000000     0.0428598  
H291     H      0.883970000000     0.931340000000     0.566400000000     0.0436444  
H292     H      0.834430000000     0.883640000000     0.471710000000     0.0460572  
H293     H      0.927020000000     0.689300000000     0.069010000000     0.0403109  
H294     H      0.909440000000     0.681360000000     0.454750000000     0.0411381  
H295     H      0.864190000000     0.631880000000     0.465000000000     0.0398869  
H296     H      0.877300000000     0.644320000000     0.079430000000     0.0404651  
H297     H      0.635460000000     0.863150000000     0.463530000000     0.0381302  
H298     H      0.646410000000     0.872120000000     0.078480000000     0.0416385  
H299     H      0.691820000000     0.921870000000     0.070360000000     0.0382241  
H300     H      0.685220000000     0.908500000000     0.455500000000     0.0419512  
H301     H      0.625510000000     0.672860000000     0.966960000000     0.0438044  
H302     H      0.671930000000     0.721300000000     0.062800000000     0.0461452  
H303     H      0.717970000000     0.672230000000     0.064760000000     0.0461068  
H304     H      0.670410000000     0.624030000000     0.969380000000     0.0430277  
H305     H      0.968700000000     0.034180000000     0.407330000000     0.0475902  
H306     H      0.883140000000     0.537480000000     0.326980000000     0.0418157  
H307     H      0.837300000000     0.523830000000     0.374360000000     0.0432928  
H308     H      0.924100000000     0.022560000000     0.453410000000     0.0466957  
H309     H      0.671030000000     0.071310000000     0.419620000000     0.0430452  
H310     H      0.716920000000     0.971600000000     0.375450000000     0.0447462  
H311     H      0.671460000000     0.973600000000     0.326500000000     0.0439643  
H312     H      0.627670000000     0.074290000000     0.370920000000     0.045144   
H313     H      0.632020000000     0.533750000000     0.079280000000     0.0475747  
H314     H      0.716320000000     0.536560000000     0.160850000000     0.0419075  
H315     H      0.669130000000     0.023430000000     0.207070000000     0.0432578  
H316     H      0.586040000000     0.022670000000     0.124210000000     0.0463971  
H317     H      0.921620000000     0.975770000000     0.168140000000     0.0443642  
H318     H      0.879260000000     0.578220000000     0.209700000000     0.0441189  
H319     H      0.834000000000     0.579640000000     0.160690000000     0.0455575  
H320     H      0.878240000000     0.978160000000     0.119050000000     0.042227   
H321     H      0.076430000000     0.631910000000     0.366490000000     0.0447883  
H322     H      0.474420000000     0.675320000000     0.325110000000     0.0438901  
H323     H      0.474600000000     0.721960000000     0.373000000000     0.0456576  
H324     H      0.075960000000     0.676970000000     0.414060000000     0.0426767  
H325     H      0.533140000000     0.883850000000     0.323750000000     0.0416423  
H326     H      0.529860000000     0.968260000000     0.405340000000     0.047708   
H327     H      0.020660000000     0.922770000000     0.450950000000     0.0470015  
H328     H      0.021370000000     0.836850000000     0.370910000000     0.041462   
H329     H      0.477670000000     0.925690000000     0.164200000000     0.044764   
H330     H      0.578520000000     0.882600000000     0.208630000000     0.0441694  
H331     H      0.582170000000     0.838720000000     0.158470000000     0.0447192  
H332     H      0.482620000000     0.884180000000     0.113880000000     0.0422996  
H333     H      0.018390000000     0.669800000000     0.203540000000     0.043426   
H334     H      0.018510000000     0.585260000000     0.122000000000     0.0463817  
H335     H      0.532060000000     0.630450000000     0.076570000000     0.0470984  
H336     H      0.533600000000     0.715860000000     0.157190000000     0.0436304  
H337     H      0.883520000000     0.837660000000     0.969630000000     0.0459952  
H338     H      0.932830000000     0.886510000000     0.063820000000     0.0428578  
H339     H      0.883960000000     0.931330000000     0.066400000000     0.043657   
H340     H      0.834430000000     0.883640000000     0.971710000000     0.0460767  
H341     H      0.927030000000     0.689300000000     0.569010000000     0.0403155  
H342     H      0.909440000000     0.681360000000     0.954740000000     0.0411297  
H343     H      0.864190000000     0.631880000000     0.965000000000     0.0398952  
H344     H      0.877300000000     0.644320000000     0.579430000000     0.0404535  
H345     H      0.635460000000     0.863150000000     0.963530000000     0.0381512  
H346     H      0.646410000000     0.872120000000     0.578480000000     0.0416258  
H347     H      0.691820000000     0.921870000000     0.570360000000     0.0382351  
H348     H      0.685220000000     0.908500000000     0.955490000000     0.04192    
H349     H      0.625520000000     0.672860000000     0.466960000000     0.0438102  
H350     H      0.671930000000     0.721300000000     0.562800000000     0.0461495  
H351     H      0.717970000000     0.672230000000     0.564760000000     0.0461224  
H352     H      0.670420000000     0.624040000000     0.469380000000     0.0430152  
H353     H      0.968700000000     0.034180000000     0.907320000000     0.0476502  
H354     H      0.883140000000     0.537480000000     0.826980000000     0.0418141  
H355     H      0.837300000000     0.523830000000     0.874360000000     0.0432993  
H356     H      0.924100000000     0.022560000000     0.953410000000     0.0467798  
H357     H      0.671030000000     0.071310000000     0.919620000000     0.0430895  
H358     H      0.716920000000     0.971600000000     0.875440000000     0.0447371  
H359     H      0.671460000000     0.973600000000     0.826500000000     0.0439789  
H360     H      0.627670000000     0.074290000000     0.870920000000     0.0451545  
H361     H      0.632020000000     0.533750000000     0.579280000000     0.0476497  
H362     H      0.716320000000     0.536560000000     0.660850000000     0.0419076  
H363     H      0.669130000000     0.023420000000     0.707070000000     0.0432566  
H364     H      0.586040000000     0.022670000000     0.624210000000     0.0464178  
H365     H      0.921620000000     0.975770000000     0.668140000000     0.0443686  
H366     H      0.879260000000     0.578220000000     0.709700000000     0.0441179  
H367     H      0.833990000000     0.579640000000     0.660690000000     0.0455617  
H368     H      0.878240000000     0.978160000000     0.619050000000     0.0422426  
H369     H      0.076430000000     0.631910000000     0.866490000000     0.0447801  
H370     H      0.474420000000     0.675320000000     0.825110000000     0.0438865  
H371     H      0.474600000000     0.721960000000     0.873000000000     0.0456814  
H372     H      0.075960000000     0.676970000000     0.914060000000     0.0426998  
H373     H      0.533140000000     0.883850000000     0.823750000000     0.0416405  
H374     H      0.529860000000     0.968260000000     0.905350000000     0.0477211  
H375     H      0.020660000000     0.922770000000     0.950950000000     0.047099   
H376     H      0.021370000000     0.836850000000     0.870910000000     0.0414625  
H377     H      0.477670000000     0.925690000000     0.664190000000     0.0447548  
H378     H      0.578520000000     0.882600000000     0.708630000000     0.0441681  
H379     H      0.582170000000     0.838720000000     0.658470000000     0.0447202  
H380     H      0.482620000000     0.884180000000     0.613880000000     0.0423142  
H381     H      0.018390000000     0.669800000000     0.703540000000     0.043423   
H382     H      0.018500000000     0.585260000000     0.622000000000     0.0464031  
H383     H      0.532060000000     0.630450000000     0.576570000000     0.0471438  
H384     H      0.533600000000     0.715860000000     0.657190000000     0.0436434  
N1       N      0.413170000000     0.360360000000     0.515060000000    -0.174157   
N2       N      0.356990000000     0.412460000000     0.517690000000    -0.173178   
N3       N      0.421770000000     0.188550000000     0.511100000000    -0.170456   
N4       N      0.367470000000     0.134650000000     0.022970000000    -0.17088    
N5       N      0.137300000000     0.364270000000     0.021610000000    -0.169479   
N6       N      0.191880000000     0.418830000000     0.512310000000    -0.169132   
N7       N      0.143760000000     0.199330000000     0.016180000000    -0.173151   
N8       N      0.195990000000     0.143140000000     0.018660000000    -0.174082   
N9       N      0.429500000000     0.036650000000     0.363290000000    -0.170683   
N10      N      0.377070000000     0.522180000000     0.417600000000    -0.171196   
N11      N      0.195730000000     0.520050000000     0.402260000000    -0.174245   
N12      N      0.144740000000     0.522780000000     0.346290000000    -0.174081   
N13      N      0.178000000000     0.035560000000     0.116470000000    -0.170869   
N14      N      0.123930000000     0.521740000000     0.169260000000    -0.171742   
N15      N      0.405410000000     0.028170000000     0.191350000000    -0.172156   
N16      N      0.354360000000     0.030220000000     0.134940000000    -0.172007   
N17      N      0.524060000000     0.148620000000     0.343640000000    -0.173315   
N18      N      0.524050000000     0.201330000000     0.398420000000    -0.172569   
N19      N      0.032440000000     0.429720000000     0.360760000000    -0.170632   
N20      N      0.520650000000     0.376070000000     0.414600000000    -0.170691   
N21      N      0.029030000000     0.408900000000     0.189150000000    -0.172797   
N22      N      0.033860000000     0.359790000000     0.131400000000    -0.173617   
N23      N      0.517270000000     0.123920000000     0.166470000000    -0.171717   
N24      N      0.033910000000     0.176830000000     0.113250000000    -0.1712     
N25      N      0.413160000000     0.360360000000     0.015060000000    -0.17426    
N26      N      0.356980000000     0.412460000000     0.017690000000    -0.173312   
N27      N      0.421770000000     0.188550000000     0.011100000000    -0.17062    
N28      N      0.367470000000     0.134650000000     0.522980000000    -0.170691   
N29      N      0.137300000000     0.364270000000     0.521620000000    -0.169281   
N30      N      0.191880000000     0.418830000000     0.012310000000    -0.169333   
N31      N      0.143760000000     0.199330000000     0.516180000000    -0.17298    
N32      N      0.195990000000     0.143140000000     0.518660000000    -0.173836   
N33      N      0.429500000000     0.036650000000     0.863280000000    -0.170717   
N34      N      0.377070000000     0.522180000000     0.917600000000    -0.171189   
N35      N      0.195730000000     0.520050000000     0.902260000000    -0.174218   
N36      N      0.144740000000     0.522780000000     0.846290000000    -0.174086   
N37      N      0.178000000000     0.035560000000     0.616470000000    -0.17086    
N38      N      0.123930000000     0.521740000000     0.669260000000    -0.171743   
N39      N      0.405410000000     0.028170000000     0.691350000000    -0.172169   
N40      N      0.354360000000     0.030220000000     0.634940000000    -0.17197    
N41      N      0.524060000000     0.148620000000     0.843640000000    -0.173319   
N42      N      0.524050000000     0.201330000000     0.898420000000    -0.17254    
N43      N      0.032440000000     0.429720000000     0.860770000000    -0.170599   
N44      N      0.520650000000     0.376070000000     0.914600000000    -0.170658   
N45      N      0.029030000000     0.408900000000     0.689140000000    -0.172763   
N46      N      0.033860000000     0.359790000000     0.631400000000    -0.173612   
N47      N      0.517270000000     0.123920000000     0.666470000000    -0.171719   
N48      N      0.033910000000     0.176830000000     0.613240000000    -0.171241   
N49      N      0.413170000000     0.860360000000     0.515060000000    -0.174136   
N50      N      0.356990000000     0.912460000000     0.517690000000    -0.173171   
N51      N      0.421770000000     0.688550000000     0.511100000000    -0.170493   
N52      N      0.367470000000     0.634650000000     0.022970000000    -0.170865   
N53      N      0.137300000000     0.864270000000     0.021610000000    -0.16948    
N54      N      0.191880000000     0.918840000000     0.512310000000    -0.169181   
N55      N      0.143760000000     0.699330000000     0.016180000000    -0.173153   
N56      N      0.195990000000     0.643140000000     0.018660000000    -0.174082   
N57      N      0.429500000000     0.536660000000     0.363290000000    -0.170692   
N58      N      0.377070000000     0.022180000000     0.417600000000    -0.171227   
N59      N      0.195730000000     0.020060000000     0.402260000000    -0.17428    
N60      N      0.144740000000     0.022780000000     0.346290000000    -0.174167   
N61      N      0.178000000000     0.535570000000     0.116470000000    -0.170871   
N62      N      0.123930000000     0.021740000000     0.169260000000    -0.171752   
N63      N      0.405410000000     0.528170000000     0.191360000000    -0.172096   
N64      N      0.354360000000     0.530220000000     0.134940000000    -0.172071   
N65      N      0.524060000000     0.648620000000     0.343640000000    -0.173315   
N66      N      0.524050000000     0.701330000000     0.398420000000    -0.172596   
N67      N      0.032450000000     0.929710000000     0.360760000000    -0.170587   
N68      N      0.520650000000     0.876070000000     0.414600000000    -0.17069    
N69      N      0.029030000000     0.908900000000     0.189150000000    -0.172749   
N70      N      0.033860000000     0.859790000000     0.131400000000    -0.173618   
N71      N      0.517270000000     0.623920000000     0.166470000000    -0.171723   
N72      N      0.033910000000     0.676840000000     0.113240000000    -0.171308   
N73      N      0.413160000000     0.860360000000     0.015060000000    -0.174254   
N74      N      0.356980000000     0.912460000000     0.017690000000    -0.173307   
N75      N      0.421770000000     0.688550000000     0.011100000000    -0.170644   
N76      N      0.367470000000     0.634660000000     0.522980000000    -0.170646   
N77      N      0.137300000000     0.864270000000     0.521610000000    -0.169246   
N78      N      0.191880000000     0.918830000000     0.012310000000    -0.169326   
N79      N      0.143760000000     0.699330000000     0.516180000000    -0.17298    
N80      N      0.195990000000     0.643140000000     0.518660000000    -0.173847   
N81      N      0.429500000000     0.536660000000     0.863280000000    -0.170729   
N82      N      0.377070000000     0.022180000000     0.917600000000    -0.171204   
N83      N      0.195730000000     0.020060000000     0.902260000000    -0.174261   
N84      N      0.144740000000     0.022780000000     0.846290000000    -0.174153   
N85      N      0.178000000000     0.535570000000     0.616470000000    -0.170846   
N86      N      0.123930000000     0.021740000000     0.669260000000    -0.171767   
N87      N      0.405410000000     0.528170000000     0.691360000000    -0.172089   
N88      N      0.354360000000     0.530220000000     0.634940000000    -0.172056   
N89      N      0.524060000000     0.648620000000     0.843640000000    -0.173319   
N90      N      0.524050000000     0.701330000000     0.898420000000    -0.172566   
N91      N      0.032450000000     0.929710000000     0.860770000000    -0.170553   
N92      N      0.520650000000     0.876070000000     0.914600000000    -0.170658   
N93      N      0.029030000000     0.908900000000     0.689150000000    -0.172751   
N94      N      0.033860000000     0.859790000000     0.631400000000    -0.173588   
N95      N      0.517270000000     0.623920000000     0.666470000000    -0.171721   
N96      N      0.033910000000     0.676840000000     0.613240000000    -0.171304   
N97      N      0.913170000000     0.360360000000     0.515060000000    -0.174083   
N98      N      0.856990000000     0.412460000000     0.517690000000    -0.173178   
N99      N      0.921770000000     0.188550000000     0.511100000000    -0.17043    
N100     N      0.867470000000     0.134650000000     0.022970000000    -0.170909   
N101     N      0.637300000000     0.364270000000     0.021610000000    -0.16948    
N102     N      0.691880000000     0.418830000000     0.512310000000    -0.169121   
N103     N      0.643760000000     0.199330000000     0.016180000000    -0.173147   
N104     N      0.695990000000     0.143140000000     0.018660000000    -0.174086   
N105     N      0.929500000000     0.036650000000     0.363290000000    -0.170678   
N106     N      0.877070000000     0.522180000000     0.417600000000    -0.171186   
N107     N      0.695730000000     0.520060000000     0.402260000000    -0.174201   
N108     N      0.644740000000     0.522780000000     0.346290000000    -0.174129   
N109     N      0.678000000000     0.035560000000     0.116470000000    -0.170864   
N110     N      0.623930000000     0.521740000000     0.169260000000    -0.171743   
N111     N      0.905410000000     0.028170000000     0.191350000000    -0.1722     
N112     N      0.854360000000     0.030220000000     0.134940000000    -0.172006   
N113     N      0.024060000000     0.148620000000     0.343640000000    -0.173301   
N114     N      0.024050000000     0.201330000000     0.398420000000    -0.172646   
N115     N      0.532450000000     0.429710000000     0.360760000000    -0.170627   
N116     N      0.020640000000     0.376070000000     0.414600000000    -0.170711   
N117     N      0.529030000000     0.408900000000     0.189150000000    -0.172818   
N118     N      0.533860000000     0.359790000000     0.131400000000    -0.173628   
N119     N      0.017270000000     0.123930000000     0.166470000000    -0.171691   
N120     N      0.533920000000     0.176830000000     0.113250000000    -0.171198   
N121     N      0.913170000000     0.360360000000     0.015060000000    -0.174336   
N122     N      0.856980000000     0.412460000000     0.017690000000    -0.173306   
N123     N      0.921770000000     0.188550000000     0.011100000000    -0.17056    
N124     N      0.867470000000     0.134650000000     0.522980000000    -0.17066    
N125     N      0.637300000000     0.364270000000     0.521620000000    -0.169281   
N126     N      0.691880000000     0.418830000000     0.012310000000    -0.169302   
N127     N      0.643760000000     0.199330000000     0.516180000000    -0.173011   
N128     N      0.695990000000     0.143140000000     0.518660000000    -0.173832   
N129     N      0.929500000000     0.036650000000     0.863280000000    -0.170718   
N130     N      0.877070000000     0.522180000000     0.917600000000    -0.171168   
N131     N      0.695730000000     0.520060000000     0.902260000000    -0.174203   
N132     N      0.644740000000     0.522780000000     0.846290000000    -0.174117   
N133     N      0.678000000000     0.035560000000     0.616470000000    -0.170861   
N134     N      0.623930000000     0.521740000000     0.669260000000    -0.171751   
N135     N      0.905410000000     0.028170000000     0.691350000000    -0.172199   
N136     N      0.854360000000     0.030220000000     0.634940000000    -0.171971   
N137     N      0.024060000000     0.148620000000     0.843640000000    -0.173299   
N138     N      0.024050000000     0.201330000000     0.898420000000    -0.17264    
N139     N      0.532450000000     0.429710000000     0.860770000000    -0.170596   
N140     N      0.020640000000     0.376070000000     0.914600000000    -0.170677   
N141     N      0.529030000000     0.408900000000     0.689150000000    -0.172818   
N142     N      0.533860000000     0.359790000000     0.631400000000    -0.173628   
N143     N      0.017260000000     0.123930000000     0.666470000000    -0.171699   
N144     N      0.533920000000     0.176830000000     0.613240000000    -0.171239   
N145     N      0.913170000000     0.860360000000     0.515060000000    -0.174082   
N146     N      0.856990000000     0.912460000000     0.517690000000    -0.17317    
N147     N      0.921770000000     0.688550000000     0.511100000000    -0.170458   
N148     N      0.867470000000     0.634650000000     0.022970000000    -0.170875   
N149     N      0.637300000000     0.864270000000     0.021610000000    -0.169481   
N150     N      0.691880000000     0.918840000000     0.512310000000    -0.169192   
N151     N      0.643760000000     0.699330000000     0.016180000000    -0.173149   
N152     N      0.695990000000     0.643140000000     0.018660000000    -0.174083   
N153     N      0.929500000000     0.536660000000     0.363290000000    -0.17066    
N154     N      0.877070000000     0.022180000000     0.417600000000    -0.171222   
N155     N      0.695730000000     0.020060000000     0.402260000000    -0.174238   
N156     N      0.644750000000     0.022780000000     0.346290000000    -0.174143   
N157     N      0.678000000000     0.535570000000     0.116470000000    -0.170864   
N158     N      0.623930000000     0.021740000000     0.169260000000    -0.171752   
N159     N      0.905410000000     0.528170000000     0.191360000000    -0.172051   
N160     N      0.854360000000     0.530220000000     0.134950000000    -0.172068   
N161     N      0.024060000000     0.648620000000     0.343640000000    -0.173341   
N162     N      0.024050000000     0.701330000000     0.398420000000    -0.172655   
N163     N      0.532450000000     0.929710000000     0.360770000000    -0.170544   
N164     N      0.020640000000     0.876070000000     0.414600000000    -0.170708   
N165     N      0.529030000000     0.908900000000     0.189150000000    -0.172804   
N166     N      0.533860000000     0.859790000000     0.131400000000    -0.173637   
N167     N      0.017260000000     0.623920000000     0.166470000000    -0.171745   
N168     N      0.533920000000     0.676830000000     0.113250000000    -0.171226   
N169     N      0.913160000000     0.860360000000     0.015060000000    -0.174267   
N170     N      0.856980000000     0.912460000000     0.017690000000    -0.173301   
N171     N      0.921770000000     0.688550000000     0.011100000000    -0.170626   
N172     N      0.867470000000     0.634650000000     0.522980000000    -0.170667   
N173     N      0.637300000000     0.864270000000     0.521620000000    -0.169281   
N174     N      0.691880000000     0.918830000000     0.012310000000    -0.169315   
N175     N      0.643760000000     0.699330000000     0.516180000000    -0.17301    
N176     N      0.695990000000     0.643140000000     0.518660000000    -0.173843   
N177     N      0.929500000000     0.536660000000     0.863290000000    -0.170688   
N178     N      0.877070000000     0.022180000000     0.917600000000    -0.171171   
N179     N      0.695730000000     0.020060000000     0.902260000000    -0.174231   
N180     N      0.644740000000     0.022780000000     0.846290000000    -0.174152   
N181     N      0.678000000000     0.535570000000     0.616470000000    -0.170836   
N182     N      0.623930000000     0.021740000000     0.669260000000    -0.171754   
N183     N      0.905410000000     0.528170000000     0.691360000000    -0.172045   
N184     N      0.854360000000     0.530220000000     0.634950000000    -0.172048   
N185     N      0.024060000000     0.648620000000     0.843640000000    -0.173361   
N186     N      0.024050000000     0.701330000000     0.898420000000    -0.172637   
N187     N      0.532450000000     0.929710000000     0.860770000000    -0.170551   
N188     N      0.020640000000     0.876070000000     0.914600000000    -0.170674   
N189     N      0.529030000000     0.908900000000     0.689150000000    -0.172804   
N190     N      0.533860000000     0.859790000000     0.631400000000    -0.173608   
N191     N      0.017260000000     0.623920000000     0.666470000000    -0.171744   
N192     N      0.533910000000     0.676830000000     0.613240000000    -0.171256   
O1       O      0.514830000000     0.062990000000     0.183040000000    -0.363584   
O2       O      0.087490000000     0.542770000000     0.330790000000    -0.373052   
O3       O      0.494010000000     0.113760000000     0.299880000000    -0.354314   
O4       O      0.104600000000     0.504780000000     0.226720000000    -0.353796   
O5       O      0.041970000000     0.090070000000     0.329750000000    -0.369662   
O6       O      0.062620000000     0.018960000000     0.184700000000    -0.36248    
O7       O      0.110660000000     0.494500000000     0.301000000000    -0.355629   
O8       O      0.501000000000     0.105630000000     0.224600000000    -0.352521   
O9       O      0.507370000000     0.465170000000     0.206510000000    -0.38068    
O10      O      0.490000000000     0.535320000000     0.346490000000    -0.373264   
O11      O      0.441270000000     0.059240000000     0.233700000000    -0.358135   
O12      O      0.051270000000     0.450190000000     0.303830000000    -0.360554   
O13      O      0.031340000000     0.490740000000     0.344950000000    -0.372437   
O14      O      0.463170000000     0.008740000000     0.206550000000    -0.377454   
O15      O      0.058630000000     0.444190000000     0.232760000000    -0.359228   
O16      O      0.448950000000     0.054660000000     0.305590000000    -0.359321   
O17      O      0.037380000000     0.039700000000     0.261650000000    -0.588735   
O18      O      0.035180000000     0.192420000000     0.053240000000    -0.357445   
O19      O      0.474100000000     0.349450000000     0.527200000000    -0.362133   
O20      O      0.060770000000     0.312360000000     0.099570000000    -0.355203   
O21      O      0.450470000000     0.236770000000     0.480840000000    -0.344781   
O22      O      0.521570000000     0.350310000000     0.071310000000    -0.36362    
O23      O      0.481260000000     0.205770000000     0.023360000000    -0.3564     
O24      O      0.445620000000     0.314610000000     0.485790000000    -0.363222   
O25      O      0.050470000000     0.235640000000     0.093730000000    -0.353264   
O26      O      0.039370000000     0.211470000000     0.457670000000    -0.37348    
O27      O      0.078310000000     0.347630000000     0.506180000000    -0.372988   
O28      O      0.109560000000     0.243670000000     0.046110000000    -0.367096   
O29      O      0.503210000000     0.318290000000     0.436910000000    -0.35718    
O30      O      0.525950000000     0.361230000000     0.474300000000    -0.367314   
O31      O      0.084640000000     0.213010000000     0.999730000000    -0.37601    
O32      O      0.496020000000     0.246850000000     0.432200000000    -0.358427   
O33      O      0.105570000000     0.317500000000     0.051540000000    -0.347666   
O34      O      0.516350000000     0.276890000000     0.026280000000    -0.583873   
O35      O      0.345300000000     0.016440000000     0.075040000000    -0.370381   
O36      O      0.208550000000     0.478090000000     0.527090000000    -0.372264   
O37      O      0.236290000000     0.053020000000     0.095360000000    -0.35653    
O38      O      0.312440000000     0.446350000000     0.487790000000    -0.368122   
O39      O      0.193950000000     0.530630000000     0.057180000000    -0.368538   
O40      O      0.343800000000     0.471930000000     0.033380000000    -0.377278   
O41      O      0.238900000000     0.450080000000     0.482350000000    -0.347272   
O42      O      0.309170000000     0.058810000000     0.101160000000    -0.358652   
O43      O      0.362670000000     0.021610000000     0.478020000000    -0.356944   
O44      O      0.207360000000     0.082380000000     0.505710000000    -0.361824   
O45      O      0.319550000000     0.105280000000     0.053080000000    -0.344368   
O46      O      0.243660000000     0.493920000000     0.433940000000    -0.354547   
O47      O      0.206110000000     0.533810000000     0.461720000000    -0.367498   
O48      O      0.350330000000     0.075380000000     0.009760000000    -0.357725   
O49      O      0.318840000000     0.505760000000     0.438420000000    -0.353403   
O50      O      0.241510000000     0.110320000000     0.047980000000    -0.361714   
O51      O      0.279560000000     0.539750000000     0.006840000000    -0.584173   
O52      O      0.514830000000     0.062990000000     0.683040000000    -0.363636   
O53      O      0.087490000000     0.542770000000     0.830790000000    -0.373041   
O54      O      0.494010000000     0.113760000000     0.799880000000    -0.354351   
O55      O      0.104600000000     0.504780000000     0.726720000000    -0.353799   
O56      O      0.041970000000     0.090070000000     0.829750000000    -0.369661   
O57      O      0.062620000000     0.018960000000     0.684700000000    -0.362482   
O58      O      0.110660000000     0.494500000000     0.801000000000    -0.35563    
O59      O      0.501000000000     0.105630000000     0.724600000000    -0.352482   
O60      O      0.507370000000     0.465170000000     0.706510000000    -0.380684   
O61      O      0.490000000000     0.535320000000     0.846490000000    -0.373282   
O62      O      0.441270000000     0.059240000000     0.733700000000    -0.358093   
O63      O      0.051270000000     0.450190000000     0.803830000000    -0.360541   
O64      O      0.031340000000     0.490740000000     0.844950000000    -0.372407   
O65      O      0.463170000000     0.008740000000     0.706550000000    -0.377437   
O66      O      0.058630000000     0.444190000000     0.732760000000    -0.359217   
O67      O      0.448950000000     0.054660000000     0.805590000000    -0.359376   
O68      O      0.037380000000     0.039700000000     0.761650000000    -0.588735   
O69      O      0.035180000000     0.192420000000     0.553240000000    -0.357472   
O70      O      0.474100000000     0.349450000000     0.027200000000    -0.362015   
O71      O      0.060770000000     0.312360000000     0.599570000000    -0.355204   
O72      O      0.450470000000     0.236770000000     0.980840000000    -0.344415   
O73      O      0.521570000000     0.350310000000     0.571310000000    -0.363648   
O74      O      0.481270000000     0.205770000000     0.523360000000    -0.356459   
O75      O      0.445620000000     0.314600000000     0.985790000000    -0.362752   
O76      O      0.050470000000     0.235640000000     0.593730000000    -0.353299   
O77      O      0.039370000000     0.211470000000     0.957670000000    -0.373265   
O78      O      0.078310000000     0.347630000000     0.006180000000    -0.373138   
O79      O      0.109560000000     0.243670000000     0.546110000000    -0.367177   
O80      O      0.503210000000     0.318290000000     0.936910000000    -0.357168   
O81      O      0.525950000000     0.361230000000     0.974300000000    -0.36699    
O82      O      0.084640000000     0.213010000000     0.499720000000    -0.376565   
O83      O      0.496020000000     0.246850000000     0.932200000000    -0.358435   
O84      O      0.105570000000     0.317500000000     0.551540000000    -0.347643   
O85      O      0.516350000000     0.276890000000     0.526280000000    -0.583832   
O86      O      0.345310000000     0.016440000000     0.575040000000    -0.370281   
O87      O      0.208550000000     0.478090000000     0.027080000000    -0.372296   
O88      O      0.236290000000     0.053020000000     0.595360000000    -0.356528   
O89      O      0.312440000000     0.446350000000     0.987790000000    -0.367817   
O90      O      0.193940000000     0.530630000000     0.557180000000    -0.368441   
O91      O      0.343800000000     0.471930000000     0.533380000000    -0.377345   
O92      O      0.238900000000     0.450080000000     0.982350000000    -0.346924   
O93      O      0.309170000000     0.058810000000     0.601170000000    -0.358638   
O94      O      0.362670000000     0.021610000000     0.978020000000    -0.35675    
O95      O      0.207360000000     0.082380000000     0.005710000000    -0.36199    
O96      O      0.319550000000     0.105280000000     0.553080000000    -0.344381   
O97      O      0.243660000000     0.493920000000     0.933940000000    -0.354631   
O98      O      0.206110000000     0.533810000000     0.961720000000    -0.367229   
O99      O      0.350330000000     0.075390000000     0.509760000000    -0.35761    
O100     O      0.318840000000     0.505760000000     0.938420000000    -0.353454   
O101     O      0.241510000000     0.110330000000     0.547980000000    -0.361616   
O102     O      0.279560000000     0.539750000000     0.506840000000    -0.584021   
O103     O      0.514830000000     0.562990000000     0.183040000000    -0.363619   
O104     O      0.087500000000     0.042770000000     0.330790000000    -0.373136   
O105     O      0.494010000000     0.613760000000     0.299880000000    -0.3544     
O106     O      0.104600000000     0.004780000000     0.226720000000    -0.353908   
O107     O      0.041970000000     0.590070000000     0.329750000000    -0.369574   
O108     O      0.062620000000     0.518960000000     0.184700000000    -0.362451   
O109     O      0.110660000000     0.994500000000     0.301000000000    -0.355529   
O110     O      0.501000000000     0.605630000000     0.224600000000    -0.352609   
O111     O      0.507370000000     0.965170000000     0.206510000000    -0.380561   
O112     O      0.490000000000     0.035320000000     0.346490000000    -0.373282   
O113     O      0.441260000000     0.559230000000     0.233710000000    -0.358132   
O114     O      0.051270000000     0.950190000000     0.303830000000    -0.360536   
O115     O      0.031340000000     0.990740000000     0.344950000000    -0.372302   
O116     O      0.463170000000     0.508740000000     0.206550000000    -0.37733    
O117     O      0.058630000000     0.944190000000     0.232760000000    -0.359245   
O118     O      0.448950000000     0.554660000000     0.305590000000    -0.359306   
O119     O      0.037380000000     0.539700000000     0.261650000000    -0.588686   
O120     O      0.035180000000     0.692420000000     0.053240000000    -0.357519   
O121     O      0.474100000000     0.849450000000     0.527200000000    -0.362086   
O122     O      0.060770000000     0.812360000000     0.099570000000    -0.355246   
O123     O      0.450470000000     0.736770000000     0.480840000000    -0.344702   
O124     O      0.521570000000     0.850310000000     0.071310000000    -0.363619   
O125     O      0.481260000000     0.705770000000     0.023360000000    -0.356404   
O126     O      0.445620000000     0.814600000000     0.485790000000    -0.363159   
O127     O      0.050470000000     0.735630000000     0.093730000000    -0.353333   
O128     O      0.039370000000     0.711470000000     0.457670000000    -0.37356    
O129     O      0.078310000000     0.847630000000     0.506180000000    -0.372981   
O130     O      0.109560000000     0.743670000000     0.046110000000    -0.367054   
O131     O      0.503210000000     0.818290000000     0.436910000000    -0.357187   
O132     O      0.525950000000     0.861230000000     0.474300000000    -0.367303   
O133     O      0.084640000000     0.713010000000     0.999730000000    -0.376008   
O134     O      0.496020000000     0.746850000000     0.432200000000    -0.358369   
O135     O      0.105570000000     0.817500000000     0.051540000000    -0.347707   
O136     O      0.516350000000     0.776890000000     0.026280000000    -0.583874   
O137     O      0.345300000000     0.516440000000     0.075040000000    -0.370342   
O138     O      0.208550000000     0.978090000000     0.527090000000    -0.372159   
O139     O      0.236290000000     0.553020000000     0.095360000000    -0.356515   
O140     O      0.312440000000     0.946350000000     0.487790000000    -0.368101   
O141     O      0.193950000000     0.030630000000     0.057180000000    -0.368556   
O142     O      0.343800000000     0.971930000000     0.033380000000    -0.377164   
O143     O      0.238900000000     0.950080000000     0.482350000000    -0.347295   
O144     O      0.309170000000     0.558810000000     0.101170000000    -0.35859    
O145     O      0.362670000000     0.521610000000     0.478020000000    -0.357043   
O146     O      0.207360000000     0.582380000000     0.505710000000    -0.361832   
O147     O      0.319550000000     0.605280000000     0.053080000000    -0.344376   
O148     O      0.243660000000     0.993920000000     0.433940000000    -0.354394   
O149     O      0.206110000000     0.033810000000     0.461720000000    -0.367478   
O150     O      0.350330000000     0.575380000000     0.009760000000    -0.357738   
O151     O      0.318840000000     0.005750000000     0.438420000000    -0.353489   
O152     O      0.241510000000     0.610320000000     0.047980000000    -0.361709   
O153     O      0.279560000000     0.039750000000     0.006840000000    -0.584216   
O154     O      0.514830000000     0.562990000000     0.683040000000    -0.363609   
O155     O      0.087500000000     0.042770000000     0.830790000000    -0.373118   
O156     O      0.494010000000     0.613760000000     0.799880000000    -0.35444    
O157     O      0.104600000000     0.004780000000     0.726720000000    -0.353915   
O158     O      0.041970000000     0.590070000000     0.829750000000    -0.369574   
O159     O      0.062620000000     0.518960000000     0.684700000000    -0.36245    
O160     O      0.110660000000     0.994500000000     0.801000000000    -0.355603   
O161     O      0.501000000000     0.605630000000     0.724600000000    -0.352561   
O162     O      0.507370000000     0.965170000000     0.706510000000    -0.380484   
O163     O      0.490000000000     0.035320000000     0.846490000000    -0.373297   
O164     O      0.441260000000     0.559230000000     0.733710000000    -0.358092   
O165     O      0.051270000000     0.950190000000     0.803830000000    -0.360519   
O166     O      0.031340000000     0.990740000000     0.844950000000    -0.372269   
O167     O      0.463170000000     0.508740000000     0.706550000000    -0.377325   
O168     O      0.058630000000     0.944190000000     0.732760000000    -0.359248   
O169     O      0.448950000000     0.554660000000     0.805590000000    -0.359365   
O170     O      0.037380000000     0.539700000000     0.761650000000    -0.588682   
O171     O      0.035180000000     0.692420000000     0.553240000000    -0.357467   
O172     O      0.474100000000     0.849450000000     0.027200000000    -0.362006   
O173     O      0.060770000000     0.812350000000     0.599570000000    -0.355183   
O174     O      0.450470000000     0.736770000000     0.980840000000    -0.344416   
O175     O      0.521570000000     0.850310000000     0.571310000000    -0.363608   
O176     O      0.481270000000     0.705770000000     0.523360000000    -0.356464   
O177     O      0.445620000000     0.814600000000     0.985790000000    -0.362748   
O178     O      0.050470000000     0.735630000000     0.593730000000    -0.353334   
O179     O      0.039370000000     0.711470000000     0.957670000000    -0.373274   
O180     O      0.078310000000     0.847630000000     0.006180000000    -0.373138   
O181     O      0.109560000000     0.743670000000     0.546110000000    -0.367137   
O182     O      0.503210000000     0.818290000000     0.936910000000    -0.35717    
O183     O      0.525950000000     0.861230000000     0.974300000000    -0.366978   
O184     O      0.084640000000     0.713010000000     0.499720000000    -0.376575   
O185     O      0.496020000000     0.746850000000     0.932200000000    -0.35837    
O186     O      0.105570000000     0.817500000000     0.551540000000    -0.347694   
O187     O      0.516350000000     0.776890000000     0.526280000000    -0.58383    
O188     O      0.345310000000     0.516440000000     0.575040000000    -0.370284   
O189     O      0.208550000000     0.978090000000     0.027080000000    -0.372178   
O190     O      0.236290000000     0.553020000000     0.595360000000    -0.356505   
O191     O      0.312440000000     0.946350000000     0.987790000000    -0.367798   
O192     O      0.193950000000     0.030630000000     0.557180000000    -0.368561   
O193     O      0.343800000000     0.971930000000     0.533380000000    -0.377232   
O194     O      0.238900000000     0.950080000000     0.982350000000    -0.346926   
O195     O      0.309170000000     0.558810000000     0.601170000000    -0.358577   
O196     O      0.362670000000     0.521610000000     0.978020000000    -0.356735   
O197     O      0.207360000000     0.582380000000     0.005710000000    -0.362004   
O198     O      0.319550000000     0.605280000000     0.553080000000    -0.344366   
O199     O      0.243660000000     0.993920000000     0.933940000000    -0.354476   
O200     O      0.206110000000     0.033810000000     0.961720000000    -0.367199   
O201     O      0.350330000000     0.575390000000     0.509760000000    -0.357605   
O202     O      0.318840000000     0.005750000000     0.938420000000    -0.353541   
O203     O      0.241510000000     0.610320000000     0.547980000000    -0.361678   
O204     O      0.279560000000     0.039750000000     0.506840000000    -0.584061   
O205     O      0.014830000000     0.062990000000     0.183040000000    -0.363667   
O206     O      0.587500000000     0.542770000000     0.330790000000    -0.373178   
O207     O      0.994000000000     0.113760000000     0.299880000000    -0.354154   
O208     O      0.604600000000     0.504780000000     0.226720000000    -0.353796   
O209     O      0.541970000000     0.090070000000     0.329750000000    -0.369734   
O210     O      0.562620000000     0.018960000000     0.184700000000    -0.362481   
O211     O      0.610660000000     0.494500000000     0.301000000000    -0.355678   
O212     O      0.001000000000     0.105630000000     0.224600000000    -0.35263    
O213     O      0.007370000000     0.465170000000     0.206510000000    -0.380648   
O214     O      0.990000000000     0.535320000000     0.346490000000    -0.373202   
O215     O      0.941270000000     0.059240000000     0.233700000000    -0.358163   
O216     O      0.551270000000     0.450190000000     0.303830000000    -0.360523   
O217     O      0.531340000000     0.490740000000     0.344950000000    -0.372296   
O218     O      0.963170000000     0.008740000000     0.206550000000    -0.377193   
O219     O      0.558630000000     0.444190000000     0.232760000000    -0.359235   
O220     O      0.948950000000     0.054660000000     0.305590000000    -0.359317   
O221     O      0.537390000000     0.039700000000     0.261650000000    -0.588606   
O222     O      0.535180000000     0.192420000000     0.053240000000    -0.357419   
O223     O      0.974100000000     0.349450000000     0.527200000000    -0.362079   
O224     O      0.560770000000     0.312360000000     0.099570000000    -0.3552     
O225     O      0.950470000000     0.236770000000     0.480830000000    -0.344674   
O226     O      0.021570000000     0.350310000000     0.071310000000    -0.363657   
O227     O      0.981270000000     0.205770000000     0.023360000000    -0.356199   
O228     O      0.945620000000     0.314600000000     0.485790000000    -0.363175   
O229     O      0.550480000000     0.235640000000     0.093730000000    -0.353231   
O230     O      0.539370000000     0.211470000000     0.457670000000    -0.373438   
O231     O      0.578310000000     0.347630000000     0.506180000000    -0.372984   
O232     O      0.609560000000     0.243670000000     0.046110000000    -0.36709    
O233     O      0.003210000000     0.318290000000     0.436910000000    -0.3573     
O234     O      0.025950000000     0.361230000000     0.474300000000    -0.367407   
O235     O      0.584640000000     0.213010000000     0.999730000000    -0.376017   
O236     O      0.996030000000     0.246850000000     0.432200000000    -0.358305   
O237     O      0.605570000000     0.317500000000     0.051540000000    -0.347669   
O238     O      0.016350000000     0.276890000000     0.026280000000    -0.583937   
O239     O      0.845300000000     0.016440000000     0.075040000000    -0.370368   
O240     O      0.708550000000     0.478090000000     0.527090000000    -0.372234   
O241     O      0.736290000000     0.053020000000     0.095360000000    -0.356526   
O242     O      0.812440000000     0.446350000000     0.487790000000    -0.368118   
O243     O      0.693950000000     0.530630000000     0.057180000000    -0.368463   
O244     O      0.843800000000     0.471930000000     0.033380000000    -0.37728    
O245     O      0.738900000000     0.450080000000     0.482350000000    -0.347262   
O246     O      0.809170000000     0.058810000000     0.101160000000    -0.358657   
O247     O      0.862670000000     0.021610000000     0.478020000000    -0.356928   
O248     O      0.707360000000     0.082380000000     0.505710000000    -0.36179    
O249     O      0.819550000000     0.105280000000     0.053070000000    -0.344469   
O250     O      0.743660000000     0.493920000000     0.433940000000    -0.354622   
O251     O      0.706110000000     0.533810000000     0.461720000000    -0.367449   
O252     O      0.850330000000     0.075380000000     0.009760000000    -0.357754   
O253     O      0.818840000000     0.505760000000     0.438420000000    -0.353401   
O254     O      0.741510000000     0.110320000000     0.047980000000    -0.361706   
O255     O      0.779560000000     0.539750000000     0.006840000000    -0.584218   
O256     O      0.014830000000     0.062990000000     0.683040000000    -0.363662   
O257     O      0.587500000000     0.542770000000     0.830790000000    -0.373165   
O258     O      0.994000000000     0.113760000000     0.799880000000    -0.354194   
O259     O      0.604600000000     0.504780000000     0.726720000000    -0.353798   
O260     O      0.541970000000     0.090070000000     0.829750000000    -0.369733   
O261     O      0.562620000000     0.018960000000     0.684700000000    -0.36248    
O262     O      0.610660000000     0.494500000000     0.801000000000    -0.355679   
O263     O      0.001000000000     0.105630000000     0.724600000000    -0.352585   
O264     O      0.007370000000     0.465170000000     0.706510000000    -0.380635   
O265     O      0.990000000000     0.535320000000     0.846490000000    -0.373204   
O266     O      0.941270000000     0.059240000000     0.733700000000    -0.358123   
O267     O      0.551270000000     0.450190000000     0.803830000000    -0.360509   
O268     O      0.531340000000     0.490740000000     0.844950000000    -0.372264   
O269     O      0.963170000000     0.008740000000     0.706550000000    -0.377188   
O270     O      0.558630000000     0.444190000000     0.732760000000    -0.359238   
O271     O      0.948950000000     0.054660000000     0.805590000000    -0.359376   
O272     O      0.537390000000     0.039700000000     0.761650000000    -0.588636   
O273     O      0.535180000000     0.192420000000     0.553240000000    -0.357439   
O274     O      0.974100000000     0.349450000000     0.027200000000    -0.361936   
O275     O      0.560770000000     0.312360000000     0.599570000000    -0.355212   
O276     O      0.950470000000     0.236770000000     0.980830000000    -0.344278   
O277     O      0.021570000000     0.350310000000     0.571310000000    -0.363604   
O278     O      0.981270000000     0.205770000000     0.523360000000    -0.356305   
O279     O      0.945620000000     0.314600000000     0.985790000000    -0.362769   
O280     O      0.550480000000     0.235640000000     0.593730000000    -0.353261   
O281     O      0.539370000000     0.211470000000     0.957670000000    -0.373204   
O282     O      0.578310000000     0.347630000000     0.006180000000    -0.373149   
O283     O      0.609560000000     0.243670000000     0.546110000000    -0.367202   
O284     O      0.003210000000     0.318290000000     0.936910000000    -0.357272   
O285     O      0.025950000000     0.361230000000     0.974300000000    -0.367016   
O286     O      0.584640000000     0.213010000000     0.499730000000    -0.376694   
O287     O      0.996030000000     0.246850000000     0.932200000000    -0.35832    
O288     O      0.605570000000     0.317500000000     0.551540000000    -0.347644   
O289     O      0.016350000000     0.276890000000     0.526280000000    -0.583875   
O290     O      0.845310000000     0.016440000000     0.575040000000    -0.370265   
O291     O      0.708550000000     0.478090000000     0.027090000000    -0.372148   
O292     O      0.736290000000     0.053020000000     0.595360000000    -0.356521   
O293     O      0.812440000000     0.446350000000     0.987790000000    -0.367813   
O294     O      0.693950000000     0.530630000000     0.557180000000    -0.368487   
O295     O      0.843800000000     0.471930000000     0.533380000000    -0.377342   
O296     O      0.738900000000     0.450080000000     0.982350000000    -0.346886   
O297     O      0.809170000000     0.058810000000     0.601170000000    -0.358635   
O298     O      0.862670000000     0.021610000000     0.978020000000    -0.356731   
O299     O      0.707360000000     0.082380000000     0.005710000000    -0.361957   
O300     O      0.819550000000     0.105280000000     0.553080000000    -0.344377   
O301     O      0.743660000000     0.493920000000     0.933940000000    -0.354621   
O302     O      0.706110000000     0.533810000000     0.961720000000    -0.367177   
O303     O      0.850330000000     0.075390000000     0.509760000000    -0.357598   
O304     O      0.818840000000     0.505760000000     0.938420000000    -0.353447   
O305     O      0.741510000000     0.110330000000     0.547980000000    -0.361609   
O306     O      0.779550000000     0.539750000000     0.506840000000    -0.584098   
O307     O      0.014830000000     0.562990000000     0.183040000000    -0.36371    
O308     O      0.587500000000     0.042770000000     0.330790000000    -0.373121   
O309     O      0.994000000000     0.613760000000     0.299880000000    -0.354186   
O310     O      0.604600000000     0.004780000000     0.226720000000    -0.353903   
O311     O      0.541970000000     0.590070000000     0.329750000000    -0.369767   
O312     O      0.562620000000     0.518960000000     0.184700000000    -0.362466   
O313     O      0.610660000000     0.994500000000     0.301000000000    -0.35551    
O314     O      0.001000000000     0.605630000000     0.224600000000    -0.35272    
O315     O      0.007370000000     0.965170000000     0.206510000000    -0.38063    
O316     O      0.990000000000     0.035320000000     0.346490000000    -0.373164   
O317     O      0.941260000000     0.559240000000     0.233710000000    -0.357998   
O318     O      0.551270000000     0.950190000000     0.303830000000    -0.36052    
O319     O      0.531340000000     0.990740000000     0.344950000000    -0.372259   
O320     O      0.963170000000     0.508740000000     0.206550000000    -0.377175   
O321     O      0.558630000000     0.944190000000     0.232760000000    -0.359222   
O322     O      0.948950000000     0.554660000000     0.305590000000    -0.359304   
O323     O      0.537380000000     0.539700000000     0.261650000000    -0.588633   
O324     O      0.535180000000     0.692420000000     0.053240000000    -0.35746    
O325     O      0.974100000000     0.849450000000     0.527200000000    -0.362068   
O326     O      0.560770000000     0.812360000000     0.099570000000    -0.355245   
O327     O      0.950470000000     0.736770000000     0.480830000000    -0.344598   
O328     O      0.021570000000     0.850310000000     0.071310000000    -0.363656   
O329     O      0.981270000000     0.705770000000     0.023360000000    -0.356243   
O330     O      0.945620000000     0.814600000000     0.485790000000    -0.363168   
O331     O      0.550480000000     0.735630000000     0.093730000000    -0.353266   
O332     O      0.539370000000     0.711470000000     0.457670000000    -0.37349    
O333     O      0.578310000000     0.847630000000     0.506180000000    -0.372984   
O334     O      0.609560000000     0.743670000000     0.046110000000    -0.367046   
O335     O      0.003210000000     0.818290000000     0.436910000000    -0.357294   
O336     O      0.025950000000     0.861230000000     0.474300000000    -0.367395   
O337     O      0.584640000000     0.713010000000     0.999730000000    -0.376013   
O338     O      0.996030000000     0.746850000000     0.432200000000    -0.358319   
O339     O      0.605570000000     0.817500000000     0.051540000000    -0.347709   
O340     O      0.016350000000     0.776890000000     0.026280000000    -0.583933   
O341     O      0.845300000000     0.516440000000     0.075040000000    -0.370221   
O342     O      0.708550000000     0.978090000000     0.527090000000    -0.372139   
O343     O      0.736290000000     0.553020000000     0.095360000000    -0.356506   
O344     O      0.812440000000     0.946350000000     0.487790000000    -0.368094   
O345     O      0.693950000000     0.030630000000     0.057180000000    -0.368503   
O346     O      0.843800000000     0.971930000000     0.033380000000    -0.377151   
O347     O      0.738900000000     0.950080000000     0.482350000000    -0.347217   
O348     O      0.809170000000     0.558810000000     0.101170000000    -0.358535   
O349     O      0.862670000000     0.521610000000     0.478020000000    -0.357017   
O350     O      0.707360000000     0.582380000000     0.505710000000    -0.361803   
O351     O      0.819550000000     0.605280000000     0.053080000000    -0.34437    
O352     O      0.743660000000     0.993920000000     0.433940000000    -0.354472   
O353     O      0.706110000000     0.033810000000     0.461720000000    -0.367426   
O354     O      0.850330000000     0.575380000000     0.009760000000    -0.357731   
O355     O      0.818840000000     0.005750000000     0.438420000000    -0.353486   
O356     O      0.741510000000     0.610320000000     0.047980000000    -0.3617     
O357     O      0.779550000000     0.039750000000     0.006840000000    -0.584282   
O358     O      0.014830000000     0.562990000000     0.683040000000    -0.3637     
O359     O      0.587500000000     0.042770000000     0.830790000000    -0.373123   
O360     O      0.994000000000     0.613760000000     0.799880000000    -0.354227   
O361     O      0.604600000000     0.004780000000     0.726720000000    -0.353911   
O362     O      0.541970000000     0.590070000000     0.829750000000    -0.369765   
O363     O      0.562620000000     0.518960000000     0.684700000000    -0.362467   
O364     O      0.610660000000     0.994500000000     0.801000000000    -0.355607   
O365     O      0.001000000000     0.605630000000     0.724600000000    -0.352671   
O366     O      0.007370000000     0.965170000000     0.706510000000    -0.380634   
O367     O      0.990000000000     0.035320000000     0.846490000000    -0.373182   
O368     O      0.941260000000     0.559240000000     0.733710000000    -0.357959   
O369     O      0.551270000000     0.950190000000     0.803830000000    -0.36052    
O370     O      0.531340000000     0.990740000000     0.844950000000    -0.372244   
O371     O      0.963170000000     0.508740000000     0.706550000000    -0.37717    
O372     O      0.558630000000     0.944190000000     0.732760000000    -0.359215   
O373     O      0.948950000000     0.554660000000     0.805590000000    -0.359349   
O374     O      0.537380000000     0.539700000000     0.761650000000    -0.58863    
O375     O      0.535180000000     0.692420000000     0.553240000000    -0.357475   
O376     O      0.974100000000     0.849450000000     0.027200000000    -0.361906   
O377     O      0.560770000000     0.812350000000     0.599570000000    -0.355187   
O378     O      0.950470000000     0.736770000000     0.980840000000    -0.344307   
O379     O      0.021570000000     0.850310000000     0.571310000000    -0.363564   
O380     O      0.981270000000     0.705770000000     0.523360000000    -0.356291   
O381     O      0.945620000000     0.814600000000     0.985790000000    -0.36274    
O382     O      0.550480000000     0.735630000000     0.593730000000    -0.353289   
O383     O      0.539370000000     0.711470000000     0.957670000000    -0.373254   
O384     O      0.578310000000     0.847630000000     0.006180000000    -0.373148   
O385     O      0.609560000000     0.743670000000     0.546110000000    -0.367161   
O386     O      0.003210000000     0.818290000000     0.936910000000    -0.357272   
O387     O      0.025950000000     0.861230000000     0.974300000000    -0.367007   
O388     O      0.584640000000     0.713010000000     0.499730000000    -0.37669    
O389     O      0.996030000000     0.746850000000     0.932200000000    -0.358332   
O390     O      0.605570000000     0.817500000000     0.551540000000    -0.347692   
O391     O      0.016350000000     0.776890000000     0.526280000000    -0.583849   
O392     O      0.845310000000     0.516440000000     0.575040000000    -0.370113   
O393     O      0.708550000000     0.978090000000     0.027080000000    -0.372152   
O394     O      0.736290000000     0.553020000000     0.595360000000    -0.356513   
O395     O      0.812440000000     0.946350000000     0.987790000000    -0.367793   
O396     O      0.693950000000     0.030630000000     0.557180000000    -0.368508   
O397     O      0.843800000000     0.971930000000     0.533380000000    -0.377217   
O398     O      0.738900000000     0.950080000000     0.982350000000    -0.346916   
O399     O      0.809170000000     0.558810000000     0.601170000000    -0.358593   
O400     O      0.862670000000     0.521610000000     0.978020000000    -0.356723   
O401     O      0.707360000000     0.582380000000     0.005710000000    -0.361956   
O402     O      0.819550000000     0.605280000000     0.553080000000    -0.344347   
O403     O      0.743660000000     0.993920000000     0.933940000000    -0.354551   
O404     O      0.706110000000     0.033810000000     0.961720000000    -0.367145   
O405     O      0.850330000000     0.575380000000     0.509760000000    -0.357561   
O406     O      0.818840000000     0.005750000000     0.938420000000    -0.353538   
O407     O      0.741510000000     0.610320000000     0.547980000000    -0.361673   
O408     O      0.779550000000     0.039750000000     0.506840000000    -0.584127   


