data_structure

_audit_creation_method RASPA-1.0
_audit_creation_date 2023-6-4
_audit_author_name 'Poobodin Mano'

_cell_length_a    22.9506
_cell_length_b    22.9684
_cell_length_c    23.8452
_cell_angle_alpha 87.135
_cell_angle_beta  93.8179
_cell_angle_gamma 120.432
_cell_volume      10812

_symmetry_cell_setting          triclinic
_symmetry_space_group_name_Hall 'P 1'
_symmetry_space_group_name_H-M  'P 1'
_symmetry_Int_Tables_number     1

_symmetry_equiv_pos_as_xyz 'x,y,z'

loop_
_atom_site_label
_atom_site_type_symbol
_atom_site_fract_x
_atom_site_fract_y
_atom_site_fract_z
_atom_site_charge
C1       C      0.045120000000     0.196980000000     0.998880000000     0.430694   
C2       C      0.915830000000     0.910000000000     0.003550000000     0.427127   
C3       C      0.025500000000     0.037720000000     0.901670000000     0.489599   
C4       C      0.885610000000     0.013820000000     0.120710000000     0.379782   
C5       C      0.047330000000     0.075250000000     0.184790000000     0.500453   
C6       C      0.153280000000     0.003160000000     0.965440000000     0.371539   
C7       C      0.189840000000     0.202750000000     0.064200000000     0.466928   
C8       C      0.046410000000     0.933540000000     0.110260000000     0.453078   
C9       C      0.073230000000     0.074860000000     0.418560000000     0.480739   
C10      C      0.121450000000     0.239040000000     0.607070000000     0.496696   
C11      C      0.936210000000     0.053450000000     0.519500000000     0.414333   
C12      C      0.248710000000     0.208440000000     0.511700000000     0.483036   
C13      C      0.237590000000     0.068670000000     0.588340000000     0.497064   
C14      C      0.973510000000     0.960980000000     0.625850000000     0.447826   
C15      C      0.028010000000     0.915730000000     0.484120000000     0.435769   
C16      C      0.095580000000     0.102000000000     0.699560000000     0.471625   
C17      C      0.932700000000     0.411990000000     0.017280000000     0.477214   
C18      C      0.046590000000     0.710530000000     0.094060000000     0.468873   
C19      C      0.888690000000     0.518880000000     0.154640000000     0.596461   
C20      C      0.065880000000     0.603530000000     0.958670000000     0.46544    
C21      C      0.181440000000     0.555650000000     0.028220000000     0.4049     
C22      C      0.029430000000     0.511600000000     0.239060000000     0.512397   
C23      C      0.057280000000     0.413140000000     0.110710000000     0.483229   
C24      C      0.171360000000     0.691620000000     0.167480000000     0.468345   
C25      C      0.970090000000     0.411560000000     0.537490000000     0.510391   
C26      C      0.090000000000     0.719360000000     0.531860000000     0.440586   
C27      C      0.946200000000     0.575690000000     0.604050000000     0.507529   
C28      C      0.100740000000     0.526960000000     0.449290000000     0.458613   
C29      C      0.238340000000     0.600490000000     0.559100000000     0.459421   
C30      C      0.069540000000     0.617830000000     0.722110000000     0.386234   
C31      C      0.107710000000     0.437760000000     0.637980000000     0.382946   
C32      C      0.224080000000     0.712720000000     0.608950000000     0.461967   
C33      C      0.405500000000     0.040620000000     0.984050000000     0.488514   
C34      C      0.560590000000     0.901700000000     0.994660000000     0.471832   
C35      C      0.586510000000     0.067970000000     0.904660000000     0.505301   
C36      C      0.403980000000     0.924880000000     0.112070000000     0.440814   
C37      C      0.555600000000     0.048280000000     0.173050000000     0.449109   
C38      C      0.698130000000     0.194700000000     0.005490000000     0.533731   
C39      C      0.497550000000     0.164140000000     0.099150000000     0.388002   
C40      C      0.665420000000     0.010040000000     0.115670000000     0.476304   
C41      C      0.477310000000     0.110760000000     0.502680000000     0.412684   
C42      C      0.649970000000     0.960380000000     0.492490000000     0.461771   
C43      C      0.590560000000     0.088460000000     0.403140000000     0.487191   
C44      C      0.463850000000     0.914230000000     0.576320000000     0.501961   
C45      C      0.576070000000     0.040640000000     0.677000000000     0.509291   
C46      C      0.757880000000     0.205180000000     0.454170000000     0.426149   
C47      C      0.609990000000     0.200770000000     0.604700000000     0.447313   
C48      C      0.754310000000     0.098470000000     0.583580000000     0.490188   
C49      C      0.417930000000     0.414890000000     0.998990000000     0.449338   
C50      C      0.563530000000     0.692200000000     0.958990000000     0.461773   
C51      C      0.433580000000     0.614790000000     0.072020000000     0.40214    
C52      C      0.602850000000     0.568930000000     0.905580000000     0.469188   
C53      C      0.703430000000     0.560110000000     0.031040000000     0.538204   
C54      C      0.545690000000     0.579790000000     0.174860000000     0.480141   
C55      C      0.536530000000     0.408910000000     0.097320000000     0.463909   
C56      C      0.677060000000     0.734950000000     0.077240000000     0.418241   
C57      C      0.477180000000     0.428100000000     0.508660000000     0.519746   
C58      C      0.677540000000     0.759560000000     0.471240000000     0.387053   
C59      C      0.474890000000     0.587140000000     0.571040000000     0.450825   
C60      C      0.615650000000     0.585870000000     0.406650000000     0.477924   
C61      C      0.768730000000     0.608870000000     0.489730000000     0.51449    
C62      C      0.595480000000     0.599600000000     0.681520000000     0.468138   
C63      C      0.609550000000     0.427100000000     0.599350000000     0.478736   
C64      C      0.745690000000     0.737520000000     0.603500000000     0.4639     
C65      C      0.653770000000     0.642010000000     0.821690000000    -0.0110985  
C66      C      0.560790000000     0.519730000000     0.811820000000    -0.0668849  
C67      C      0.622040000000     0.660900000000     0.770090000000    -0.0099274  
C68      C      0.527750000000     0.541250000000     0.764390000000     0.176109   
C69      C      0.624920000000     0.651240000000     0.318250000000    -0.0135854  
C70      C      0.584780000000     0.527720000000     0.316880000000    -0.0601708  
C71      C      0.583310000000     0.644640000000     0.262600000000    -0.00831658 
C72      C      0.537840000000     0.518960000000     0.265470000000     0.165352   
C73      C      0.731210000000     0.873300000000     0.425550000000    -0.0175192  
C74      C      0.608380000000     0.801010000000     0.420640000000    -0.0639661  
C75      C      0.726250000000     0.921810000000     0.464630000000    -0.0108023  
C76      C      0.597810000000     0.842630000000     0.462930000000     0.166536   
C77      C      0.555060000000     0.312610000000     0.643190000000    -0.0135364  
C78      C      0.674830000000     0.369170000000     0.605650000000    -0.0629207  
C79      C      0.567030000000     0.254640000000     0.667240000000    -0.0109022  
C80      C      0.684810000000     0.317750000000     0.641760000000     0.166792   
C81      C      0.609250000000     0.021730000000     0.823860000000    -0.00918688 
C82      C      0.523290000000     0.059200000000     0.814800000000    -0.0624481  
C83      C      0.636960000000     0.056310000000     0.768220000000    -0.00431457 
C84      C      0.546430000000     0.087620000000     0.755660000000     0.168954   
C85      C      0.546460000000     0.107720000000     0.251520000000    -0.0116585  
C86      C      0.543630000000     0.998050000000     0.267130000000    -0.0619316  
C87      C      0.579290000000     0.130150000000     0.310280000000    -0.00809683 
C88      C      0.581510000000     0.020710000000     0.323820000000     0.167766   
C89      C      0.616030000000     0.867220000000     0.928810000000    -0.0131755  
C90      C      0.491190000000     0.788920000000     0.953160000000    -0.0699407  
C91      C      0.618270000000     0.804360000000     0.909580000000    -0.00779774 
C92      C      0.496070000000     0.742490000000     0.911350000000     0.173548   
C93      C      0.465060000000     0.229530000000     0.157810000000    -0.0183396  
C94      C      0.583680000000     0.273900000000     0.139090000000    -0.0655111  
C95      C      0.466070000000     0.292520000000     0.131620000000    -0.00372912 
C96      C      0.593500000000     0.343120000000     0.118870000000     0.168199   
C97      C      0.936520000000     0.320090000000     0.470250000000    -0.0127967  
C98      C      0.853850000000     0.357890000000     0.499550000000    -0.0667269  
C99      C      0.878980000000     0.271100000000     0.428140000000    -0.0119203  
C100     C      0.817500000000     0.330060000000     0.443390000000     0.173515   
C101     C      0.292260000000     0.834640000000     0.601560000000    -0.00810845 
C102     C      0.336100000000     0.770650000000     0.658800000000    -0.0621735  
C103     C      0.341300000000     0.848800000000     0.556120000000    -0.00681616 
C104     C      0.395040000000     0.795440000000     0.618020000000     0.163546   
C105     C      0.835640000000     0.552650000000     0.492660000000    -0.00581663 
C106     C      0.887690000000     0.669910000000     0.525520000000    -0.0610177  
C107     C      0.835110000000     0.527160000000     0.553370000000    -0.0102245  
C108     C      0.889830000000     0.645070000000     0.586600000000     0.169615   
C109     C      0.384490000000     0.585630000000     0.623060000000    -0.0138076  
C110     C      0.418470000000     0.649010000000     0.532170000000    -0.0626619  
C111     C      0.310120000000     0.561650000000     0.607460000000    -0.0081455  
C112     C      0.344300000000     0.627120000000     0.514810000000     0.164345   
C113     C      0.109450000000     0.674120000000     0.872630000000    -0.0132925  
C114     C      0.031050000000     0.548120000000     0.868210000000    -0.0642812  
C115     C      0.088600000000     0.680020000000     0.810240000000    -0.0118678  
C116     C      0.007940000000     0.556200000000     0.808100000000     0.162029   
C117     C      0.053970000000     0.442980000000     0.310220000000    -0.0119884  
C118     C      0.010760000000     0.521610000000     0.334930000000    -0.0663702  
C119     C      0.088290000000     0.454660000000     0.370700000000    -0.0099423  
C120     C      0.996690000000     0.479740000000     0.388730000000     0.174221   
C121     C      0.766580000000     0.319420000000     0.007970000000    -0.0093374  
C122     C      0.822860000000     0.249430000000     0.999410000000    -0.0577492  
C123     C      0.820910000000     0.373300000000     0.970470000000    -0.00848956 
C124     C      0.875730000000     0.306470000000     0.961910000000     0.160758   
C125     C      0.347420000000     0.802380000000     0.128920000000    -0.0106699  
C126     C      0.320050000000     0.871290000000     0.187140000000    -0.0619933  
C127     C      0.273490000000     0.754790000000     0.114940000000    -0.00832035 
C128     C      0.243600000000     0.815820000000     0.182740000000     0.168005   
C129     C      0.824420000000     0.576090000000     0.141040000000     0.000646603
C130     C      0.813720000000     0.489580000000     0.072400000000    -0.057547   
C131     C      0.753290000000     0.557330000000     0.123510000000    -0.0123534  
C132     C      0.749310000000     0.484610000000     0.045220000000     0.170285   
C133     C      0.275280000000     0.584420000000     0.099310000000    -0.0131281  
C134     C      0.263440000000     0.517020000000     0.016910000000    -0.0654757  
C135     C      0.344780000000     0.641690000000     0.083070000000    -0.00901466 
C136     C      0.334570000000     0.570790000000     0.001770000000     0.160947   
C137     C      0.927470000000     0.841570000000     0.658430000000    -0.00802995 
C138     C      0.868890000000     0.900530000000     0.680850000000    -0.059414   
C139     C      0.868250000000     0.791390000000     0.620560000000    -0.0100221  
C140     C      0.803250000000     0.849470000000     0.647490000000     0.163538   
C141     C      0.341130000000     0.262780000000     0.444470000000    -0.0119499  
C142     C      0.289530000000     0.325140000000     0.477520000000    -0.0619283  
C143     C      0.411660000000     0.315380000000     0.468520000000    -0.00527902 
C144     C      0.354660000000     0.377500000000     0.507220000000     0.170555   
C145     C      0.834790000000     0.064460000000     0.622760000000    -0.00538369 
C146     C      0.873230000000     0.163060000000     0.558890000000    -0.0498974  
C147     C      0.837760000000     0.021780000000     0.577250000000    -0.0113119  
C148     C      0.886020000000     0.125870000000     0.513100000000     0.155493   
C149     C      0.361990000000     0.028920000000     0.530040000000    -0.0165288  
C150     C      0.424870000000     0.141530000000     0.572940000000    -0.0674433  
C151     C      0.295160000000     0.027970000000     0.533020000000    -0.00309448 
C152     C      0.359730000000     0.142680000000     0.579110000000     0.168939   
C153     C      0.099610000000     0.827310000000     0.551470000000    -0.0057911  
C154     C      0.064620000000     0.781120000000     0.454020000000    -0.0629089  
C155     C      0.042930000000     0.842090000000     0.549970000000    -0.00838726 
C156     C      0.017330000000     0.811720000000     0.446400000000     0.162813   
C157     C      0.184480000000     0.355300000000     0.637410000000    -0.00834458 
C158     C      0.053420000000     0.286480000000     0.632940000000    -0.050562   
C159     C      0.179940000000     0.397680000000     0.682530000000    -0.00370487 
C160     C      0.056360000000     0.327800000000     0.682650000000     0.162249   
C161     C      0.023070000000     0.986160000000     0.813590000000    -0.0176588  
C162     C      0.994250000000     0.076420000000     0.813590000000    -0.0586444  
C163     C      0.090200000000     0.034620000000     0.785180000000    -0.00691376 
C164     C      0.061690000000     0.127100000000     0.788340000000     0.168695   
C165     C      0.122510000000     0.122860000000     0.328600000000    -0.0111839  
C166     C      0.006100000000     0.019650000000     0.335110000000    -0.0674492  
C167     C      0.102070000000     0.138180000000     0.270250000000    -0.00544402 
C168     C      0.989980000000     0.030990000000     0.273460000000     0.168084   
C169     C      0.792710000000     0.856240000000     0.978680000000    -0.010585   
C170     C      0.839070000000     0.789750000000     0.025590000000    -0.0544733  
C171     C      0.751230000000     0.847170000000     0.030260000000    -0.0187724  
C172     C      0.803520000000     0.785310000000     0.079740000000     0.150235   
C173     C      0.298890000000     0.365210000000     0.027510000000    -0.0216971  
C174     C      0.343720000000     0.289240000000     0.006630000000    -0.0627586  
C175     C      0.270820000000     0.324550000000     0.082590000000    -0.00657763 
C176     C      0.314140000000     0.250540000000     0.062130000000     0.165507   
C177     C      0.775550000000     0.079000000000     0.166020000000    -0.010448   
C178     C      0.714270000000     0.956910000000     0.180910000000    -0.0610967  
C179     C      0.829220000000     0.078120000000     0.132150000000    -0.00847484 
C180     C      0.765360000000     0.948580000000     0.148620000000     0.163805   
C181     C      0.272600000000     0.069540000000     0.940400000000    -0.0175591  
C182     C      0.223730000000     0.951720000000     0.984770000000    -0.0673247  
C183     C      0.329040000000     0.060840000000     0.917720000000    -0.00680353 
C184     C      0.284410000000     0.948730000000     0.963900000000     0.167098   
C185     C      0.104250000000     0.835130000000     0.083110000000    -0.015911   
C186     C      0.986920000000     0.768490000000     0.121660000000    -0.0631031  
C187     C      0.121960000000     0.887430000000     0.128460000000    -0.00427171 
C188     C      0.007890000000     0.824810000000     0.164140000000     0.163267   
C189     C      0.002990000000     0.293320000000     0.094080000000    -0.00343495 
C190     C      0.099510000000     0.376210000000     0.036770000000    -0.0739015  
C191     C      0.017290000000     0.238680000000     0.079160000000    -0.0269572  
C192     C      0.108450000000     0.319120000000     0.015500000000     0.174278   
Co1      Co     0.037850000000     0.131970000000     0.085040000000     0.957825   
Co2      Co     0.062440000000     0.991560000000     0.008450000000     1.1181     
Co3      Co     0.116190000000     0.123010000000     0.980190000000     1.00964    
Co4      Co     0.966960000000     0.999780000000     0.084700000000     1.11143    
Co5      Co     0.154960000000     0.062900000000     0.503880000000     1.03785    
Co6      Co     0.029050000000     0.109350000000     0.592160000000     1.06454    
Co7      Co     0.022720000000     0.000090000000     0.523370000000     1.0548     
Co8      Co     0.183380000000     0.157280000000     0.613750000000     1.13941    
Co9      Co     0.072190000000     0.517310000000     0.043750000000     1.01126    
Co10     Co     0.024850000000     0.614120000000     0.168790000000     1.14131    
Co11     Co     0.958850000000     0.452590000000     0.127790000000     1.2828     
Co12     Co     0.126850000000     0.643100000000     0.069000000000     0.972908   
Co13     Co     0.109350000000     0.506650000000     0.568490000000     1.12072    
Co14     Co     0.090870000000     0.635220000000     0.627230000000     1.08978    
Co15     Co     0.008750000000     0.500220000000     0.627600000000     0.929082   
Co16     Co     0.146270000000     0.642950000000     0.508530000000     1.12299    
Co17     Co     0.489210000000     0.060830000000     0.081540000000     1.01411    
Co18     Co     0.643170000000     0.048740000000     0.009860000000     1.21426    
Co19     Co     0.550870000000     0.130320000000     0.993620000000     0.969844   
Co20     Co     0.522230000000     0.945490000000     0.083570000000     1.04288    
Co21     Co     0.511360000000     0.049720000000     0.570910000000     1.0993     
Co22     Co     0.677740000000     0.100730000000     0.492770000000     1.0859     
Co23     Co     0.618630000000     0.169080000000     0.499730000000     0.945908   
Co24     Co     0.611720000000     0.991640000000     0.589990000000     1.13299    
Co25     Co     0.568670000000     0.482050000000     0.997590000000     1.07359    
Co26     Co     0.538490000000     0.635700000000     0.064130000000     0.992724   
Co27     Co     0.472010000000     0.499240000000     0.079880000000     1.02238    
Co28     Co     0.656230000000     0.644850000000     0.011960000000     1.15048    
Co29     Co     0.627120000000     0.502290000000     0.499770000000     1.17658    
Co30     Co     0.606720000000     0.667830000000     0.565530000000     0.860873   
Co31     Co     0.538500000000     0.508150000000     0.601960000000     1.13025    
Co32     Co     0.687300000000     0.666700000000     0.510260000000     0.991164   
H1       H      0.589220000000     0.679410000000     0.784380000000     0.0446131  
H2       H      0.675000000000     0.684590000000     0.851430000000     0.044815   
H3       H      0.493720000000     0.556060000000     0.782760000000     0.00647961 
H4       H      0.520030000000     0.476260000000     0.834660000000     0.0628113  
H5       H      0.662910000000     0.702550000000     0.745770000000     0.0488205  
H6       H      0.696250000000     0.636610000000     0.808290000000     0.0458675  
H7       H      0.592820000000     0.502190000000     0.794210000000     0.0674761  
H8       H      0.445620000000     0.457070000000     0.745000000000     0.139429   
H9       H      0.536800000000     0.645010000000     0.272400000000     0.0399339  
H10      H      0.623500000000     0.689430000000     0.344140000000     0.0499227  
H11      H      0.486850000000     0.504610000000     0.279830000000     0.00476506 
H12      H      0.559010000000     0.480130000000     0.342330000000     0.0602832  
H13      H      0.614030000000     0.690270000000     0.236160000000     0.0509506  
H14      H      0.678540000000     0.670970000000     0.308450000000     0.0483865  
H15      H      0.632940000000     0.533480000000     0.303280000000     0.065168   
H16      H      0.496540000000     0.423440000000     0.248750000000     0.141374   
H17      H      0.740590000000     0.909700000000     0.506970000000     0.0419273  
H18      H      0.780180000000     0.874730000000     0.433970000000     0.0589527  
H19      H      0.591460000000     0.817740000000     0.505320000000     0.00810014 
H20      H      0.565850000000     0.747780000000     0.420790000000     0.0641068  
H21      H      0.763350000000     0.974490000000     0.452240000000     0.0554937  
H22      H      0.729870000000     0.889820000000     0.381060000000     0.0430474  
H23      H      0.608060000000     0.821420000000     0.377340000000     0.058037   
H24      H      0.500040000000     0.802740000000     0.459550000000     0.146666   
H25      H      0.581590000000     0.263160000000     0.712810000000     0.0357183  
H26      H      0.534500000000     0.327880000000     0.676860000000     0.0416267  
H27      H      0.696350000000     0.334860000000     0.686250000000     0.00405764 
H28      H      0.721250000000     0.418690000000     0.612400000000     0.0556804  
H29      H      0.519020000000     0.205850000000     0.664970000000     0.0419334  
H30      H      0.515410000000     0.292280000000     0.608800000000     0.0354616  
H31      H      0.669220000000     0.356080000000     0.560540000000     0.0638997  
H32      H      0.781540000000     0.354470000000     0.636450000000     0.144745   
H33      H      0.678410000000     0.109230000000     0.775190000000     0.0413882  
H34      H      0.652350000000     0.025160000000     0.850760000000     0.040335   
H35      H      0.582910000000     0.142990000000     0.758490000000     0.0029209  
H36      H      0.507760000000     0.091910000000     0.834360000000     0.0602303  
H37      H      0.658820000000     0.028580000000     0.749550000000     0.0429694  
H38      H      0.571560000000     0.967380000000     0.817410000000     0.0433598  
H39      H      0.477990000000     0.007730000000     0.811620000000     0.0649567  
H40      H      0.477550000000     0.110620000000     0.732520000000     0.138393   
H41      H      0.633970000000     0.167540000000     0.306070000000     0.0413812  
H42      H      0.566910000000     0.153550000000     0.223780000000     0.0473914  
H43      H      0.636620000000     0.041750000000     0.318130000000     0.0109187  
H44      H      0.559320000000     0.964490000000     0.249240000000     0.0577433  
H45      H      0.555670000000     0.156420000000     0.328640000000     0.047824   
H46      H      0.490940000000     0.086610000000     0.252940000000     0.0498207  
H47      H      0.488130000000     0.968030000000     0.272750000000     0.0686614  
H48      H      0.582450000000     0.940890000000     0.354120000000     0.152526   
H49      H      0.621320000000     0.806770000000     0.863080000000     0.0330951  
H50      H      0.616040000000     0.897350000000     0.890830000000     0.0354979  
H51      H      0.499340000000     0.765910000000     0.868720000000     0.0122443  
H52      H      0.451900000000     0.800890000000     0.936580000000     0.0629679  
H53      H      0.665250000000     0.807030000000     0.926260000000     0.0397301  
H54      H      0.664040000000     0.899640000000     0.953260000000     0.0419205  
H55      H      0.475560000000     0.762260000000     0.994470000000     0.0684827  
H56      H      0.426970000000     0.664030000000     0.946800000000     0.17352    
H57      H      0.441450000000     0.277060000000     0.089390000000     0.0344685  
H58      H      0.413120000000     0.185110000000     0.152770000000     0.0479916  
H59      H      0.606220000000     0.348570000000     0.073990000000     0.0054626  
H60      H      0.619780000000     0.264220000000     0.118080000000     0.0604446  
H61      H      0.437750000000     0.307030000000     0.158360000000     0.041811   
H62      H      0.478670000000     0.236690000000     0.203610000000     0.0426684  
H63      H      0.597470000000     0.275520000000     0.184880000000     0.0569497  
H64      H      0.688170000000     0.390290000000     0.145750000000     0.137756   
H65      H      0.892730000000     0.291310000000     0.384660000000     0.0362786  
H66      H      0.982650000000     0.351250000000     0.446400000000     0.0498962  
H67      H      0.847700000000     0.364620000000     0.408850000000    -0.00179146 
H68      H      0.858050000000     0.407820000000     0.504170000000     0.0615301  
H69      H      0.876100000000     0.221500000000     0.429710000000     0.0526647  
H70      H      0.949600000000     0.290180000000     0.500990000000     0.0395306  
H71      H      0.824260000000     0.323830000000     0.534450000000     0.0858044  
H72      H      0.761090000000     0.370990000000     0.433820000000     0.133989   
H73      H      0.319550000000     0.806980000000     0.525650000000     0.0552069  
H74      H      0.245530000000     0.832920000000     0.583190000000     0.0446022  
H75      H      0.381530000000     0.753940000000     0.588420000000     0.013505   
H76      H      0.322040000000     0.719410000000     0.675850000000     0.0571326  
H77      H      0.348950000000     0.894330000000     0.531810000000     0.0443778  
H78      H      0.315620000000     0.876180000000     0.632410000000     0.0426824  
H79      H      0.353560000000     0.805280000000     0.694970000000     0.065843   
H80      H      0.451870000000     0.765580000000     0.658480000000     0.138734   
H81      H      0.787000000000     0.515290000000     0.571380000000     0.0545299  
H82      H      0.793570000000     0.512810000000     0.466590000000     0.0352847  
H83      H      0.842010000000     0.634080000000     0.605480000000     0.00905877 
H84      H      0.883040000000     0.715790000000     0.524510000000     0.0702754  
H85      H      0.837220000000     0.479930000000     0.554090000000     0.0471398  
H86      H      0.883570000000     0.564360000000     0.473830000000     0.0436355  
H87      H      0.935900000000     0.683020000000     0.506780000000     0.0669701  
H88      H      0.935050000000     0.682910000000     0.658340000000     0.15074    
H89      H      0.285200000000     0.508940000000     0.592430000000     0.0416224  
H90      H      0.386530000000     0.545410000000     0.649590000000     0.0454913  
H91      H      0.324260000000     0.583960000000     0.485530000000     0.0115119  
H92      H      0.444760000000     0.653900000000     0.493150000000     0.0603292  
H93      H      0.286780000000     0.561610000000     0.646870000000     0.0459743  
H94      H      0.406340000000     0.631780000000     0.648810000000     0.038212   
H95      H      0.443830000000     0.699730000000     0.551430000000     0.0562722  
H96      H      0.355390000000     0.682970000000     0.447770000000     0.143588   
H97      H      0.049220000000     0.694760000000     0.808630000000     0.0442777  
H98      H      0.115350000000     0.718110000000     0.895290000000     0.0442445  
H99      H      0.963560000000     0.563540000000     0.809850000000     0.00546444 
H100     H      0.985810000000     0.506780000000     0.888710000000     0.0701305  
H101     H      0.133850000000     0.721670000000     0.790150000000     0.0518965  
H102     H      0.159650000000     0.677560000000     0.874190000000     0.0450823  
H103     H      0.069040000000     0.531770000000     0.866810000000     0.0770182  
H104     H      0.940630000000     0.463580000000     0.788950000000     0.140983   
H105     H      0.081410000000     0.406240000000     0.388900000000     0.0402349  
H106     H      0.007120000000     0.392550000000     0.308810000000     0.0373301  
H107     H      0.958180000000     0.426230000000     0.379590000000     0.000410576
H108     H      0.962710000000     0.518560000000     0.318420000000     0.0532487  
H109     H      0.143540000000     0.490080000000     0.367150000000     0.0427145  
H110     H      0.088890000000     0.442980000000     0.280020000000     0.0377318  
H111     H      0.048730000000     0.575390000000     0.343480000000     0.0774745  
H112     H      0.924430000000     0.489630000000     0.416640000000     0.133445   
H113     H      0.802160000000     0.363330000000     0.925750000000     0.0371803  
H114     H      0.718230000000     0.318380000000     0.996850000000     0.0361529  
H115     H      0.855990000000     0.297120000000     0.917240000000     0.00612673 
H116     H      0.812190000000     0.200510000000     0.982600000000     0.0525253  
H117     H      0.829820000000     0.424270000000     0.979140000000     0.0442882  
H118     H      0.780440000000     0.333280000000     0.052780000000     0.0393905  
H119     H      0.844710000000     0.253440000000     0.043010000000     0.0525097  
H120     H      0.931070000000     0.268030000000     0.945990000000     0.14631    
H121     H      0.257620000000     0.772100000000     0.075530000000     0.0298324  
H122     H      0.376900000000     0.803000000000     0.093510000000     0.0386786  
H123     H      0.217610000000     0.834720000000     0.152680000000     0.00386279 
H124     H      0.323900000000     0.921450000000     0.188690000000     0.0627332  
H125     H      0.268210000000     0.705560000000     0.106810000000     0.0344311  
H126     H      0.364110000000     0.783450000000     0.166880000000     0.0366359  
H127     H      0.343750000000     0.864000000000     0.227050000000     0.0628215  
H128     H      0.208820000000     0.842980000000     0.242130000000     0.14235    
H129     H      0.717450000000     0.514730000000     0.149860000000     0.0639056  
H130     H      0.832650000000     0.586700000000     0.186840000000     0.0376587  
H131     H      0.705390000000     0.436020000000     0.057560000000     0.00228793 
H132     H      0.804370000000     0.437280000000     0.075540000000     0.0587783  
H133     H      0.747410000000     0.600830000000     0.132960000000     0.0706387  
H134     H      0.859730000000     0.622150000000     0.117210000000     0.0485619  
H135     H      0.856010000000     0.519210000000     0.043800000000     0.0765258  
H136     H      0.730660000000     0.440620000000     0.972920000000     0.137923   
H137     H      0.339560000000     0.679800000000     0.056040000000     0.0386611  
H138     H      0.249570000000     0.602690000000     0.124990000000     0.0588739  
H139     H      0.327000000000     0.604870000000     0.971060000000     0.0041388  
H140     H      0.232220000000     0.493100000000     0.978030000000     0.0538088  
H141     H      0.375840000000     0.666910000000     0.121700000000     0.0385827  
H142     H      0.282040000000     0.547730000000     0.127190000000     0.0438522  
H143     H      0.265570000000     0.477780000000     0.044410000000     0.0532121  
H144     H      0.347350000000     0.530940000000     0.937030000000     0.147378   
H145     H      0.881280000000     0.806010000000     0.575970000000     0.0612923  
H146     H      0.975780000000     0.847520000000     0.645730000000     0.045782   
H147     H      0.797670000000     0.874980000000     0.608330000000     0.00876545 
H148     H      0.872250000000     0.950370000000     0.682490000000     0.0500668  
H149     H      0.862460000000     0.740980000000     0.629090000000     0.0487781  
H150     H      0.920770000000     0.820880000000     0.702240000000     0.0388109  
H151     H      0.866360000000     0.882520000000     0.725320000000     0.0560966  
H152     H      0.737010000000     0.866840000000     0.677670000000     0.138444   
H153     H      0.425840000000     0.291230000000     0.504230000000     0.0348211  
H154     H      0.337280000000     0.212560000000     0.444020000000     0.0423526  
H155     H      0.350490000000     0.365370000000     0.553270000000     0.00485608 
H156     H      0.245050000000     0.320110000000     0.498150000000     0.0616414  
H157     H      0.448700000000     0.328920000000     0.435470000000     0.04036    
H158     H      0.334640000000     0.276710000000     0.400090000000     0.0387784  
H159     H      0.286740000000     0.342000000000     0.433330000000     0.0617326  
H160     H      0.335070000000     0.447650000000     0.524560000000     0.144528   
H161     H      0.849940000000     0.984690000000     0.596760000000     0.0436352  
H162     H      0.884410000000     0.090720000000     0.646730000000     0.0285806  
H163     H      0.935240000000     0.163760000000     0.495210000000     0.00902989 
H164     H      0.920320000000     0.191980000000     0.585030000000     0.0405044  
H165     H      0.787150000000     0.995210000000     0.556560000000     0.0529419  
H166     H      0.796030000000     0.031970000000     0.653310000000     0.0361318  
H167     H      0.860620000000     0.200470000000     0.539640000000     0.0677801  
H168     H      0.852910000000     0.095900000000     0.437250000000     0.145476   
H169     H      0.281550000000     0.041760000000     0.490780000000     0.0306469  
H170     H      0.358350000000     0.000730000000     0.492080000000     0.0437444  
H171     H      0.356130000000     0.175200000000     0.544400000000     0.00567637 
H172     H      0.465790000000     0.194230000000     0.565630000000     0.0589058  
H173     H      0.255610000000     0.975300000000     0.543400000000     0.0356942  
H174     H      0.369140000000     0.002260000000     0.567760000000     0.0244489  
H175     H      0.436350000000     0.121750000000     0.613020000000     0.0616167  
H176     H      0.387580000000     0.220660000000     0.625720000000     0.137127   
H177     H      0.996600000000     0.798740000000     0.565960000000     0.0567677  
H178     H      0.109250000000     0.816330000000     0.595940000000     0.0572137  
H179     H      0.963650000000     0.770550000000     0.446780000000     0.00770271 
H180     H      0.039580000000     0.732410000000     0.431530000000     0.0590733  
H181     H      0.059330000000     0.884910000000     0.578530000000     0.0565533  
H182     H      0.146560000000     0.872600000000     0.537300000000     0.0451935  
H183     H      0.113040000000     0.815250000000     0.433640000000     0.0607529  
H184     H      0.005300000000     0.811570000000     0.364910000000     0.14473    
H185     H      0.184330000000     0.376950000000     0.724760000000     0.0405711  
H186     H      0.225820000000     0.345000000000     0.650910000000     0.0392901  
H187     H      0.063520000000     0.304560000000     0.722790000000     0.0105986  
H188     H      0.014350000000     0.233060000000     0.641580000000     0.0428373  
H189     H      0.222790000000     0.450390000000     0.680540000000     0.0344904  
H190     H      0.199080000000     0.384800000000     0.597320000000     0.0516624  
H191     H      0.038440000000     0.303950000000     0.593170000000     0.0678203  
H192     H      0.961070000000     0.284850000000     0.697920000000     0.142273   
H193     H      0.132360000000     0.056110000000     0.817730000000     0.0398177  
H194     H      0.028600000000     0.947810000000     0.840040000000     0.0507463  
H195     H      0.100410000000     0.153040000000     0.823030000000     0.00951891 
H196     H      0.976510000000     0.102460000000     0.840040000000     0.0602846  
H197     H      0.100810000000     0.005300000000     0.755830000000     0.0441169  
H198     H      0.982840000000     0.958430000000     0.780540000000     0.0431418  
H199     H      0.954950000000     0.051190000000     0.779260000000     0.0581065  
H200     H      0.054330000000     0.207850000000     0.782240000000     0.142868   
H201     H      0.080720000000     0.171840000000     0.273450000000     0.0400055  
H202     H      0.155950000000     0.171800000000     0.349840000000     0.0439055  
H203     H      0.959320000000     0.056390000000     0.272490000000     0.00260386 
H204     H      0.959190000000     0.001660000000     0.358260000000     0.0679297  
H205     H      0.148700000000     0.165590000000     0.245970000000     0.0450538  
H206     H      0.151910000000     0.096970000000     0.324590000000     0.0481735  
H207     H      0.018510000000     0.978530000000     0.337490000000     0.075961   
H208     H      0.903700000000     0.949350000000     0.257280000000     0.156575   
H209     H      0.782630000000     0.892750000000     0.054990000000     0.058044   
H210     H      0.805790000000     0.904640000000     0.956160000000     0.0417622  
H211     H      0.837840000000     0.830160000000     0.105670000000     0.0395876  
H212     H      0.885560000000     0.787630000000     0.035060000000     0.0611144  
H213     H      0.702900000000     0.844990000000     0.017530000000     0.0472691  
H214     H      0.761850000000     0.814970000000     0.948760000000     0.0343616  
H215     H      0.805030000000     0.745910000000     0.998630000000     0.0436075  
H216     H      0.835380000000     0.734670000000     0.127070000000     0.142378   
H217     H      0.310710000000     0.347720000000     0.116830000000     0.0313068  
H218     H      0.314330000000     0.418290000000     0.034840000000     0.0443482  
H219     H      0.350710000000     0.275900000000     0.097160000000     0.0025085  
H220     H      0.390790000000     0.288830000000     0.999200000000     0.0531858  
H221     H      0.227470000000     0.327180000000     0.096960000000     0.0391802  
H222     H      0.258090000000     0.346120000000     0.993850000000     0.0425506  
H223     H      0.307010000000     0.263000000000     0.971000000000     0.0542824  
H224     H      0.343680000000     0.184670000000     0.059520000000     0.137608   
H225     H      0.820070000000     0.086880000000     0.086940000000     0.041159   
H226     H      0.770410000000     0.123620000000     0.153730000000     0.0450228  
H227     H      0.739330000000     0.928880000000     0.107280000000     0.00481524 
H228     H      0.663650000000     0.910240000000     0.178260000000     0.0583875  
H229     H      0.878900000000     0.121260000000     0.146600000000     0.0380186  
H230     H      0.791860000000     0.084410000000     0.211400000000     0.0385471  
H231     H      0.730580000000     0.964770000000     0.226260000000     0.0579566  
H232     H      0.741750000000     0.856180000000     0.167890000000     0.150511   
H233     H      0.312640000000     0.037590000000     0.875560000000     0.0396078  
H234     H      0.257580000000     0.096060000000     0.907390000000     0.0403979  
H235     H      0.269370000000     0.924540000000     0.921900000000     0.00370645 
H236     H      0.178130000000     0.901120000000     0.978160000000     0.0599303  
H237     H      0.374590000000     0.111580000000     0.912290000000     0.0399939  
H238     H      0.293430000000     0.102190000000     0.977820000000     0.0547686  
H239     H      0.232110000000     0.961390000000     0.030660000000     0.0676985  
H240     H      0.265260000000     0.861080000000     0.994690000000     0.138567   
H241     H      0.140870000000     0.872840000000     0.167620000000     0.0387691  
H242     H      0.149830000000     0.832000000000     0.075810000000     0.0448178  
H243     H      0.030390000000     0.813070000000     0.202940000000     0.00491237 
H244     H      0.953000000000     0.720240000000     0.143470000000     0.0535894  
H245     H      0.163930000000     0.937680000000     0.115380000000     0.0507081  
H246     H      0.089470000000     0.851850000000     0.043080000000     0.0591579  
H247     H      0.957960000000     0.774930000000     0.085710000000     0.0630432  
H248     H      0.926690000000     0.791450000000     0.205890000000     0.13942    
H249     H      0.050250000000     0.234280000000     0.113370000000     0.0161582  
H250     H      0.987010000000     0.283800000000     0.138290000000     0.0346249  
H251     H      0.152510000000     0.321200000000     0.038470000000     0.00270992 
H252     H      0.150270000000     0.419160000000     0.044960000000     0.0647011  
H253     H      0.967530000000     0.191170000000     0.078330000000     0.0308521  
H254     H      0.959950000000     0.288860000000     0.066890000000     0.0557813  
H255     H      0.072830000000     0.388750000000     0.002180000000     0.0995692  
H256     H      0.167910000000     0.367080000000     0.954260000000     0.140268   
N1       N      0.581120000000     0.601100000000     0.735670000000    -0.191473   
N2       N      0.603510000000     0.577670000000     0.848440000000    -0.169346   
N3       N      0.563050000000     0.582480000000     0.231670000000    -0.188015   
N4       N      0.600380000000     0.586740000000     0.349810000000    -0.170331   
N5       N      0.657160000000     0.912060000000     0.466840000000    -0.186328   
N6       N      0.673790000000     0.805530000000     0.434450000000    -0.152963   
N7       N      0.621150000000     0.252610000000     0.639050000000    -0.184914   
N8       N      0.615410000000     0.373180000000     0.620950000000    -0.172476   
N9       N      0.582230000000     0.056270000000     0.732340000000    -0.197477   
N10      N      0.576800000000     0.054710000000     0.848810000000    -0.179397   
N11      N      0.573020000000     0.074110000000     0.347520000000    -0.189096   
N12      N      0.558650000000     0.056230000000     0.229760000000    -0.166509   
N13      N      0.558260000000     0.740370000000     0.925180000000    -0.189773   
N14      N      0.556760000000     0.852070000000     0.961770000000    -0.166676   
N15      N      0.533510000000     0.351350000000     0.121830000000    -0.184696   
N16      N      0.513820000000     0.219600000000     0.129980000000    -0.15426    
N17      N      0.813560000000     0.264700000000     0.438320000000    -0.18039    
N18      N      0.921570000000     0.365120000000     0.501630000000    -0.1739     
N19      N      0.403680000000     0.855090000000     0.583480000000    -0.193306   
N20      N      0.277570000000     0.770700000000     0.629750000000    -0.168435   
N21      N      0.891510000000     0.581600000000     0.586020000000    -0.20186    
N22      N      0.831190000000     0.614460000000     0.493620000000    -0.179026   
N23      N      0.300240000000     0.603940000000     0.563430000000    -0.188004   
N24      N      0.423470000000     0.601090000000     0.572670000000    -0.169276   
N25      N      0.061990000000     0.616510000000     0.779460000000    -0.169574   
N26      N      0.061000000000     0.610520000000     0.900950000000    -0.168171   
N27      N      0.060610000000     0.483130000000     0.408120000000    -0.186499   
N28      N      0.036380000000     0.495410000000     0.293640000000    -0.17898    
N29      N      0.883850000000     0.371020000000     0.978420000000    -0.190817   
N30      N      0.759890000000     0.252860000000     0.001060000000    -0.185439   
N31      N      0.231640000000     0.751040000000     0.160900000000    -0.195038   
N32      N      0.356820000000     0.868750000000     0.139950000000    -0.167683   
N33      N      0.739700000000     0.538800000000     0.063690000000    -0.198793   
N34      N      0.835260000000     0.520870000000     0.128530000000    -0.196189   
N35      N      0.375130000000     0.611640000000     0.051540000000    -0.179023   
N36      N      0.235610000000     0.549850000000     0.047700000000    -0.15686    
N37      N      0.803530000000     0.788400000000     0.629660000000    -0.18489    
N38      N      0.928650000000     0.905880000000     0.656890000000    -0.168055   
N39      N      0.415470000000     0.377310000000     0.488960000000    -0.199781   
N40      N      0.289130000000     0.261560000000     0.477660000000    -0.174578   
N41      N      0.887490000000     0.065470000000     0.536060000000    -0.19646    
N42      N      0.819830000000     0.114110000000     0.594720000000    -0.172889   
N43      N      0.297930000000     0.074890000000     0.574740000000    -0.197074   
N44      N      0.419650000000     0.098270000000     0.527580000000    -0.17619    
N45      N      0.029010000000     0.857710000000     0.492210000000    -0.181678   
N46      N      0.080550000000     0.771490000000     0.513720000000    -0.165394   
N47      N      0.115070000000     0.395630000000     0.675910000000    -0.169447   
N48      N      0.119690000000     0.291930000000     0.627390000000    -0.174633   
N49      N      0.085150000000     0.090080000000     0.755670000000    -0.193897   
N50      N      0.003840000000     0.025970000000     0.846530000000    -0.176596   
N51      N      0.051690000000     0.075520000000     0.242330000000    -0.194836   
N52      N      0.063070000000     0.079800000000     0.361830000000    -0.17145    
N53      N      0.740530000000     0.787730000000     0.064740000000    -0.18894    
N54      N      0.853730000000     0.852780000000     0.995950000000    -0.16567    
N55      N      0.254470000000     0.254880000000     0.074660000000    -0.191894   
N56      N      0.355990000000     0.358660000000     0.009310000000    -0.172042   
N57      N      0.829490000000     0.013580000000     0.138510000000    -0.171362   
N58      N      0.711820000000     0.015490000000     0.157350000000    -0.175197   
N59      N      0.343150000000     0.017240000000     0.956420000000    -0.192464   
N60      N      0.212790000000     0.004550000000     0.956410000000    -0.147881   
N61      N      0.060120000000     0.888530000000     0.139430000000    -0.183531   
N62      N      0.046660000000     0.769530000000     0.099970000000    -0.172206   
N63      N      0.050020000000     0.251580000000     0.024950000000    -0.188207   
N64      N      0.061790000000     0.361520000000     0.088080000000    -0.169518   
O1       O      0.002320000000     0.139750000000     0.015090000000    -0.439049   
O2       O      0.970460000000     0.907670000000     0.009590000000    -0.385254   
O3       O      0.053140000000     0.095840000000     0.920040000000    -0.464629   
O4       O      0.887610000000     0.959120000000     0.119390000000    -0.393827   
O5       O      0.028160000000     0.993570000000     0.932550000000    -0.446079   
O6       O      0.938500000000     0.070670000000     0.106940000000    -0.450803   
O7       O      0.918800000000     0.964450000000     0.015040000000    -0.435253   
O8       O      0.098100000000     0.200330000000     0.982210000000    -0.37976    
O9       O      0.073410000000     0.128860000000     0.157080000000    -0.457862   
O10      O      0.100400000000     0.947790000000     0.979280000000    -0.411821   
O11      O      0.181680000000     0.154920000000     0.035690000000    -0.449622   
O12      O      0.987260000000     0.926770000000     0.107460000000    -0.368656   
O13      O      0.091260000000     0.978340000000     0.079900000000    -0.448931   
O14      O      0.137680000000     0.204560000000     0.077030000000    -0.38887    
O15      O      0.007240000000     0.023070000000     0.158750000000    -0.42981    
O16      O      0.152650000000     0.059250000000     0.967120000000    -0.449085   
O17      O      0.046570000000     0.058240000000     0.043100000000    -0.596886   
O18      O      0.131880000000     0.096190000000     0.439070000000    -0.465687   
O19      O      0.076190000000     0.200330000000     0.572780000000    -0.458142   
O20      O      0.933220000000     0.997360000000     0.527250000000    -0.372502   
O21      O      0.223150000000     0.217570000000     0.553040000000    -0.463527   
O22      O      0.994530000000     0.101760000000     0.518510000000    -0.443656   
O23      O      0.237010000000     0.149910000000     0.502220000000    -0.442234   
O24      O      0.157410000000     0.218920000000     0.632910000000    -0.469984   
O25      O      0.024590000000     0.037260000000     0.448810000000    -0.425211   
O26      O      0.183540000000     0.026190000000     0.564190000000    -0.460573   
O27      O      0.970410000000     0.014820000000     0.622110000000    -0.423859   
O28      O      0.973680000000     0.916030000000     0.491310000000    -0.394416   
O29      O      0.143040000000     0.099050000000     0.677830000000    -0.444139   
O30      O      0.059910000000     0.120390000000     0.669560000000    -0.4335     
O31      O      0.084210000000     0.970350000000     0.492000000000    -0.512227   
O32      O      0.238050000000     0.119260000000     0.606290000000    -0.463912   
O33      O      0.013090000000     0.956330000000     0.594650000000    -0.436786   
O34      O      0.098910000000     0.090960000000     0.559430000000    -0.533055   
O35      O      0.994620000000     0.429470000000     0.014850000000    -0.379846   
O36      O      0.000010000000     0.657410000000     0.113920000000    -0.479205   
O37      O      0.905420000000     0.481130000000     0.135960000000    -0.608163   
O38      O      0.104690000000     0.651900000000     0.989850000000    -0.434552   
O39      O      0.932180000000     0.566670000000     0.183100000000    -0.498274   
O40      O      0.039230000000     0.546070000000     0.981000000000    -0.444394   
O41      O      0.098870000000     0.710220000000     0.080450000000    -0.425061   
O42      O      0.916020000000     0.433550000000     0.056680000000    -0.482102   
O43      O      0.132670000000     0.510300000000     0.998060000000    -0.391082   
O44      O      0.044540000000     0.571510000000     0.227490000000    -0.487512   
O45      O      0.999330000000     0.401900000000     0.118740000000    -0.511555   
O46      O      0.159400000000     0.640910000000     0.141670000000    -0.458145   
O47      O      0.119180000000     0.691780000000     0.179650000000    -0.417029   
O48      O      0.100910000000     0.474290000000     0.102870000000    -0.429559   
O49      O      0.171550000000     0.597340000000     0.052580000000    -0.509173   
O50      O      0.995930000000     0.465320000000     0.203790000000    -0.485297   
O51      O      0.032390000000     0.551970000000     0.099750000000    -0.508112   
O52      O      0.031130000000     0.435200000000     0.531440000000    -0.446346   
O53      O      0.106610000000     0.715140000000     0.583570000000    -0.392513   
O54      O      0.941150000000     0.519630000000     0.609790000000    -0.450836   
O55      O      0.096170000000     0.578720000000     0.455980000000    -0.448901   
O56      O      0.003540000000     0.625610000000     0.612290000000    -0.433391   
O57      O      0.130690000000     0.509340000000     0.487880000000    -0.381943   
O58      O      0.086260000000     0.677210000000     0.497250000000    -0.429442   
O59      O      0.954910000000     0.434970000000     0.575690000000    -0.446503   
O60      O      0.196320000000     0.571220000000     0.596810000000    -0.454022   
O61      O      0.094850000000     0.673620000000     0.693800000000    -0.403266   
O62      O      0.067540000000     0.459510000000     0.649120000000    -0.440056   
O63      O      0.204380000000     0.712810000000     0.558160000000    -0.466436   
O64      O      0.185920000000     0.664540000000     0.641410000000    -0.424997   
O65      O      0.131320000000     0.446020000000     0.588930000000    -0.434365   
O66      O      0.218520000000     0.620030000000     0.514980000000    -0.422386   
O67      O      0.044130000000     0.561700000000     0.695350000000    -0.437642   
O68      O      0.080310000000     0.574560000000     0.565750000000    -0.597658   
O69      O      0.411770000000     0.017220000000     0.030610000000    -0.4141     
O70      O      0.616340000000     0.955230000000     0.003350000000    -0.466683   
O71      O      0.565230000000     0.103250000000     0.924940000000    -0.450964   
O72      O      0.431450000000     0.919360000000     0.070540000000    -0.434224   
O73      O      0.615520000000     0.043460000000     0.935740000000    -0.502858   
O74      O      0.428300000000     0.983640000000     0.130240000000    -0.37692    
O75      O      0.509680000000     0.894890000000     0.017800000000    -0.433773   
O76      O      0.458160000000     0.088980000000     0.965300000000    -0.451422   
O77      O      0.558310000000     0.094080000000     0.139430000000    -0.428454   
O78      O      0.694400000000     0.139070000000     0.005130000000    -0.526535   
O79      O      0.535360000000     0.169840000000     0.059500000000    -0.454722   
O80      O      0.610660000000     0.955420000000     0.106590000000    -0.438243   
O81      O      0.678480000000     0.059080000000     0.083360000000    -0.486632   
O82      O      0.450400000000     0.105620000000     0.113050000000    -0.387546   
O83      O      0.535550000000     0.989660000000     0.154350000000    -0.441063   
O84      O      0.644260000000     0.195570000000     0.007930000000    -0.458054   
O85      O      0.549280000000     0.037480000000     0.037690000000    -0.514188   
O86      O      0.488090000000     0.063970000000     0.497720000000    -0.441133   
O87      O      0.692700000000     0.022940000000     0.487190000000    -0.381689   
O88      O      0.586260000000     0.134630000000     0.425660000000    -0.430955   
O89      O      0.517940000000     0.925590000000     0.602210000000    -0.434869   
O90      O      0.620250000000     0.062280000000     0.430600000000    -0.441132   
O91      O      0.464830000000     0.961250000000     0.546950000000    -0.460632   
O92      O      0.602070000000     0.942700000000     0.524650000000    -0.43523    
O93      O      0.531140000000     0.165780000000     0.508790000000    -0.396585   
O94      O      0.523920000000     0.029240000000     0.647300000000    -0.45032    
O95      O      0.751090000000     0.147890000000     0.446190000000    -0.392214   
O96      O      0.652490000000     0.211090000000     0.568890000000    -0.407432   
O97      O      0.707180000000     0.038850000000     0.591690000000    -0.470323   
O98      O      0.740850000000     0.138370000000     0.555420000000    -0.433648   
O99      O      0.554080000000     0.144340000000     0.603840000000    -0.408367   
O100     O      0.621500000000     0.034840000000     0.655800000000    -0.484378   
O101     O      0.710010000000     0.206980000000     0.476500000000    -0.459814   
O102     O      0.600270000000     0.067260000000     0.541590000000    -0.546291   
O103     O      0.470390000000     0.411100000000     0.994830000000    -0.423885   
O104     O      0.514550000000     0.647650000000     0.985980000000    -0.40352    
O105     O      0.438340000000     0.561770000000     0.071720000000    -0.48042    
O106     O      0.650230000000     0.613520000000     0.936660000000    -0.443905   
O107     O      0.486350000000     0.671500000000     0.084370000000    -0.39006    
O108     O      0.556620000000     0.515100000000     0.927430000000    -0.454785   
O109     O      0.620780000000     0.697930000000     0.970770000000    -0.449239   
O110     O      0.428470000000     0.471470000000     0.010400000000    -0.441188   
O111     O      0.664430000000     0.526070000000     0.991120000000    -0.452962   
O112     O      0.564190000000     0.632160000000     0.144290000000    -0.4036     
O113     O      0.487570000000     0.420260000000     0.098060000000    -0.402961   
O114     O      0.668800000000     0.677890000000     0.082830000000    -0.438907   
O115     O      0.622300000000     0.733630000000     0.063590000000    -0.359053   
O116     O      0.584300000000     0.446400000000     0.066480000000    -0.444628   
O117     O      0.699060000000     0.607780000000     0.046670000000    -0.511487   
O118     O      0.508410000000     0.523940000000     0.152210000000    -0.454012   
O119     O      0.566430000000     0.565440000000     0.038750000000    -0.51485    
O120     O      0.531990000000     0.432470000000     0.496630000000    -0.473602   
O121     O      0.623210000000     0.713330000000     0.492830000000    -0.437201   
O122     O      0.485620000000     0.553440000000     0.609170000000    -0.417191   
O123     O      0.640520000000     0.638910000000     0.435100000000    -0.40601    
O124     O      0.518080000000     0.613950000000     0.534860000000    -0.418857   
O125     O      0.609700000000     0.532720000000     0.429880000000    -0.477647   
O126     O      0.731780000000     0.756960000000     0.480670000000    -0.370245   
O127     O      0.478850000000     0.467820000000     0.543210000000    -0.491758   
O128     O      0.717570000000     0.551990000000     0.494570000000    -0.510689   
O129     O      0.592290000000     0.640910000000     0.645590000000    -0.402085   
O130     O      0.561790000000     0.436110000000     0.611190000000    -0.439318   
O131     O      0.745990000000     0.692370000000     0.577160000000    -0.421291   
O132     O      0.692220000000     0.739130000000     0.597170000000    -0.42221    
O133     O      0.649530000000     0.465860000000     0.563620000000    -0.473831   
O134     O      0.761840000000     0.659690000000     0.488470000000    -0.415951   
O135     O      0.593120000000     0.547330000000     0.664820000000    -0.455109   
O136     O      0.621230000000     0.578590000000     0.547250000000    -0.501399   
O137     O      0.489180000000     0.487670000000     0.727300000000    -0.289082   
O138     O      0.533580000000     0.466680000000     0.233760000000    -0.261572   
O139     O      0.539260000000     0.845080000000     0.445640000000    -0.263616   
O140     O      0.739450000000     0.313010000000     0.623970000000    -0.263351   
O141     O      0.489580000000     0.077000000000     0.721600000000    -0.270582   
O142     O      0.556570000000     0.963810000000     0.360200000000    -0.25514    
O143     O      0.439030000000     0.678130000000     0.907920000000    -0.290733   
O144     O      0.647380000000     0.393650000000     0.150920000000    -0.275268   
O145     O      0.753450000000     0.324540000000     0.439490000000    -0.27304    
O146     O      0.454710000000     0.809580000000     0.649270000000    -0.269102   
O147     O      0.944930000000     0.694930000000     0.618120000000    -0.278864   
O148     O      0.343490000000     0.682300000000     0.487180000000    -0.27488    
O149     O      0.988140000000     0.496240000000     0.779720000000    -0.263949   
O150     O      0.971630000000     0.503040000000     0.429140000000    -0.2639     
O151     O      0.937690000000     0.307770000000     0.966350000000    -0.270968   
O152     O      0.216630000000     0.805070000000     0.236010000000    -0.273514   
O153     O      0.754010000000     0.487750000000     0.986370000000    -0.274923   
O154     O      0.366550000000     0.541320000000     0.976240000000    -0.254981   
O155     O      0.747790000000     0.829990000000     0.680880000000    -0.275151   
O156     O      0.361350000000     0.441400000000     0.496390000000    -0.268243   
O157     O      0.835250000000     0.105390000000     0.470400000000    -0.25642    
O158     O      0.364670000000     0.170910000000     0.631540000000    -0.27599    
O159     O      0.028230000000     0.846340000000     0.394290000000    -0.28053    
O160     O      0.996220000000     0.329810000000     0.683920000000    -0.269012   
O161     O      0.054810000000     0.176160000000     0.755670000000    -0.273497   
O162     O      0.951650000000     0.967240000000     0.248560000000    -0.249189   
O163     O      0.791020000000     0.727310000000     0.111510000000    -0.258634   
O164     O      0.299970000000     0.183370000000     0.060970000000    -0.264246   
O165     O      0.779150000000     0.901990000000     0.178080000000    -0.265994   
O166     O      0.300500000000     0.908950000000     0.001170000000    -0.259982   
O167     O      0.951840000000     0.829030000000     0.178760000000    -0.256001   
O168     O      0.120500000000     0.329750000000     0.957740000000    -0.272137   


