data_structure

_audit_creation_method RASPA-1.0
_audit_creation_date 2023-6-4
_audit_author_name 'Poobodin Mano'

_cell_length_a    39.3679
_cell_length_b    40.3956
_cell_length_c    40.9635
_cell_angle_alpha 87.1403
_cell_angle_beta  93.8141
_cell_angle_gamma 120.434
_cell_volume      56033.5

_symmetry_cell_setting          triclinic
_symmetry_space_group_name_Hall 'P 1'
_symmetry_space_group_name_H-M  'P 1'
_symmetry_Int_Tables_number     1

_symmetry_equiv_pos_as_xyz 'x,y,z'

loop_
_atom_site_label
_atom_site_type_symbol
_atom_site_fract_x
_atom_site_fract_y
_atom_site_fract_z
_atom_site_charge
C1       C      0.048970000000     0.127150000000     0.026800000000     0.381362   
C2       C      0.957480000000     0.950440000000     0.031590000000     0.493502   
C3       C      0.036480000000     0.050970000000     0.947450000000     0.470802   
C4       C      0.981020000000     0.031000000000     0.068880000000     0.449173   
C5       C      0.077180000000     0.058660000000     0.107890000000     0.465807   
C6       C      0.106630000000     0.028940000000     0.988920000000     0.44153    
C7       C      0.137650000000     0.127180000000     0.021800000000     0.382401   
C8       C      0.051630000000     0.953190000000     0.032780000000     0.492542   
C9       C      0.046210000000     0.039570000000     0.447500000000     0.47005    
C10      C      0.023500000000     0.115210000000     0.556670000000     0.452213   
C11      C      0.952580000000     0.049090000000     0.519300000000     0.476862   
C12      C      0.117210000000     0.104600000000     0.487570000000     0.453725   
C13      C      0.120940000000     0.057790000000     0.561980000000     0.447005   
C14      C      0.951430000000     0.961310000000     0.543820000000     0.463554   
C15      C      0.007380000000     0.954810000000     0.500650000000     0.453835   
C16      C      0.063470000000     0.066170000000     0.607620000000     0.457895   
C17      C      0.974730000000     0.443730000000     0.995230000000     0.4626     
C18      C      0.053860000000     0.612170000000     0.029660000000     0.472842   
C19      C      0.977880000000     0.547770000000     0.058350000000     0.461233   
C20      C      0.047260000000     0.511560000000     0.957630000000     0.460885   
C21      C      0.132280000000     0.540800000000     0.016870000000     0.459193   
C22      C      0.014440000000     0.498990000000     0.115870000000     0.453662   
C23      C      0.014510000000     0.435630000000     0.071590000000     0.462964   
C24      C      0.133440000000     0.597930000000     0.060440000000     0.4527     
C25      C      0.961970000000     0.469230000000     0.490180000000     0.475163   
C26      C      0.005610000000     0.613620000000     0.522150000000     0.472492   
C27      C      0.950320000000     0.532110000000     0.578440000000     0.496931   
C28      C      0.040860000000     0.534900000000     0.457950000000     0.452366   
C29      C      0.112700000000     0.563550000000     0.526650000000     0.445274   
C30      C      0.032470000000     0.520790000000     0.615500000000     0.499552   
C31      C      0.983960000000     0.436770000000     0.561990000000     0.378973   
C32      C      0.102720000000     0.639370000000     0.550750000000     0.488105   
C33      C      0.449780000000     0.009850000000     0.007190000000     0.455846   
C34      C      0.517380000000     0.933470000000     0.009450000000     0.495016   
C35      C      0.526040000000     0.031830000000     0.952890000000     0.486966   
C36      C      0.480290000000     0.926210000000     0.091180000000     0.406997   
C37      C      0.544920000000     0.024660000000     0.114270000000     0.472042   
C38      C      0.615640000000     0.098440000000     0.001700000000     0.483449   
C39      C      0.509800000000     0.080320000000     0.068490000000     0.45344    
C40      C      0.611840000000     0.000710000000     0.048080000000     0.473518   
C41      C      0.457190000000     0.047730000000     0.519650000000     0.470661   
C42      C      0.548540000000     0.972680000000     0.500430000000     0.449399   
C43      C      0.558210000000     0.042170000000     0.453260000000     0.459838   
C44      C      0.451090000000     0.982540000000     0.562780000000     0.454698   
C45      C      0.540210000000     0.025980000000     0.613990000000     0.463138   
C46      C      0.612690000000     0.127440000000     0.501830000000     0.460575   
C47      C      0.550080000000     0.132530000000     0.541030000000     0.454009   
C48      C      0.601720000000     0.019770000000     0.572770000000     0.45888    
C49      C      0.482730000000     0.434570000000     0.014140000000     0.473864   
C50      C      0.530460000000     0.596800000000     0.037020000000     0.45099    
C51      C      0.467650000000     0.531330000000     0.073750000000     0.466326   
C52      C      0.545210000000     0.501170000000     0.974820000000     0.451477   
C53      C      0.632520000000     0.546020000000     0.033230000000     0.454941   
C54      C      0.518310000000     0.497100000000     0.132770000000     0.457999   
C55      C      0.525190000000     0.433880000000     0.091430000000     0.458668   
C56      C      0.622320000000     0.604130000000     0.066730000000     0.474285   
C57      C      0.458260000000     0.443080000000     0.516010000000     0.456309   
C58      C      0.514240000000     0.610210000000     0.534210000000     0.458472   
C59      C      0.448720000000     0.543720000000     0.574180000000     0.467906   
C60      C      0.524710000000     0.510080000000     0.474090000000     0.456702   
C61      C      0.611320000000     0.554730000000     0.531710000000     0.456485   
C62      C      0.501800000000     0.509580000000     0.632560000000     0.461474   
C63      C      0.507190000000     0.447380000000     0.592840000000     0.455802   
C64      C      0.604340000000     0.614720000000     0.565220000000     0.466764   
C65      C      0.544020000000     0.466980000000     0.891820000000    -0.0572707  
C66      C      0.538920000000     0.517840000000     0.682550000000     0.0757725  
C67      C      0.470050000000     0.473810000000     0.680760000000     0.0749896  
C68      C      0.541580000000     0.511610000000     0.716070000000    -0.0941044  
C69      C      0.527550000000     0.517970000000     0.786720000000    -0.0328146  
C70      C      0.531880000000     0.516970000000     0.820730000000    -0.0370034  
C71      C      0.510430000000     0.483990000000     0.768870000000    -0.00772363 
C72      C      0.471770000000     0.466550000000     0.714590000000    -0.0935597  
C73      C      0.519660000000     0.482020000000     0.837760000000    -5.56761e-05
C74      C      0.506880000000     0.499210000000     0.890950000000    -0.0837105  
C75      C      0.502790000000     0.447880000000     0.820040000000    -0.0373374  
C76      C      0.513320000000     0.503160000000     0.924620000000     0.0699928  
C77      C      0.550030000000     0.471040000000     0.926150000000     0.0242123  
C78      C      0.497820000000     0.448810000000     0.785770000000    -0.0328865  
C79      C      0.507770000000     0.486420000000     0.732640000000     0.0515808  
C80      C      0.523090000000     0.481940000000     0.874020000000     0.0382065  
C81      C      0.570910000000     0.452700000000     0.943110000000     0.292197   
C82      C      0.531730000000     0.476100000000     0.393670000000    -0.0572894  
C83      C      0.548170000000     0.509340000000     0.186460000000     0.075431   
C84      C      0.480110000000     0.463450000000     0.178820000000     0.0762492  
C85      C      0.545390000000     0.505670000000     0.220310000000    -0.0959766  
C86      C      0.512510000000     0.513730000000     0.284400000000    -0.0328982  
C87      C      0.512010000000     0.514950000000     0.318320000000    -0.0369119  
C88      C      0.505560000000     0.480240000000     0.269420000000    -0.00844713 
C89      C      0.476450000000     0.458580000000     0.212790000000    -0.0951847  
C90      C      0.505230000000     0.482890000000     0.338010000000    -0.000147301
C91      C      0.487270000000     0.500500000000     0.389000000000    -0.0838     
C92      C      0.497910000000     0.449170000000     0.322990000000    -0.0370878  
C93      C      0.492680000000     0.506770000000     0.422540000000     0.0711949  
C94      C      0.536910000000     0.482710000000     0.427530000000     0.0311688  
C95      C      0.497670000000     0.447720000000     0.288840000000    -0.0326357  
C96      C      0.509160000000     0.480670000000     0.233740000000     0.0525208  
C97      C      0.507370000000     0.485630000000     0.374120000000     0.0399259  
C98      C      0.565570000000     0.474110000000     0.445470000000     0.292774   
C99      C      0.502900000000     0.684370000000     0.485590000000    -0.0584067  
C100     C      0.579670000000     0.936680000000     0.490270000000     0.0769997  
C101     C      0.510050000000     0.906480000000     0.487240000000     0.0726692  
C102     C      0.577270000000     0.901060000000     0.487560000000    -0.0923552  
C103     C      0.563550000000     0.822400000000     0.508810000000    -0.0332099  
C104     C      0.558010000000     0.785560000000     0.514290000000    -0.037056   
C105     C      0.536770000000     0.828270000000     0.488450000000    -0.00677965 
C106     C      0.506550000000     0.870500000000     0.484640000000    -0.0926148  
C107     C      0.525310000000     0.753240000000     0.499870000000    -0.000347625
C108     C      0.525260000000     0.704950000000     0.540700000000    -0.0859217  
C109     C      0.499340000000     0.759150000000     0.478440000000    -0.0368154  
C110     C      0.521000000000     0.669190000000     0.548690000000     0.072445   
C111     C      0.497680000000     0.647820000000     0.494490000000     0.0252608  
C112     C      0.505040000000     0.796160000000     0.472770000000    -0.0329391  
C113     C      0.540330000000     0.867070000000     0.485930000000     0.0497608  
C114     C      0.517840000000     0.713720000000     0.508580000000     0.0383001  
C115     C      0.477660000000     0.617350000000     0.469710000000     0.287453   
C116     C      0.563880000000     0.212860000000     0.590230000000    -0.0594652  
C117     C      0.477260000000     0.379940000000     0.603630000000     0.087589   
C118     C      0.546810000000     0.419270000000     0.605940000000     0.079199   
C119     C      0.480480000000     0.346880000000     0.604930000000    -0.0880217  
C120     C      0.494850000000     0.286670000000     0.578500000000    -0.0314643  
C121     C      0.501320000000     0.257320000000     0.569900000000    -0.0362344  
C122     C      0.522160000000     0.316210000000     0.599230000000    -0.00517531 
C123     C      0.551120000000     0.387040000000     0.606820000000    -0.0909818  
C124     C      0.535680000000     0.256890000000     0.581220000000    -0.000139842
C125     C      0.531950000000     0.212670000000     0.538230000000    -0.085346   
C126     C      0.562360000000     0.285710000000     0.602820000000    -0.0361418  
C127     C      0.537150000000     0.183010000000     0.528510000000     0.0722839  
C128     C      0.570380000000     0.184070000000     0.579360000000     0.0246158  
C129     C      0.555500000000     0.314690000000     0.611930000000    -0.0328094  
C130     C      0.517780000000     0.350170000000     0.604780000000     0.0555012  
C131     C      0.543740000000     0.226960000000     0.569920000000     0.0385731  
C132     C      0.596730000000     0.174840000000     0.600560000000     0.28779    
C133     C      0.494690000000     0.994900000000     0.870230000000    -0.0617009  
C134     C      0.562540000000     0.058490000000     0.664370000000     0.082722   
C135     C      0.522290000000     0.990630000000     0.664360000000     0.07965    
C136     C      0.560170000000     0.058860000000     0.698060000000    -0.0939655  
C137     C      0.562300000000     0.050950000000     0.771550000000    -0.0327339  
C138     C      0.556010000000     0.052920000000     0.804320000000    -0.0362834  
C139     C      0.531330000000     0.025080000000     0.750570000000    -0.00733941 
C140     C      0.519320000000     0.989940000000     0.698220000000    -0.0949235  
C141     C      0.518710000000     0.028890000000     0.816900000000    -0.0012228  
C142     C      0.528410000000     0.063950000000     0.868510000000    -0.0876959  
C143     C      0.487740000000     0.002920000000     0.796050000000    -0.0368092  
C144     C      0.528320000000     0.063820000000     0.902550000000     0.0728777  
C145     C      0.494670000000     0.995450000000     0.904400000000     0.0300392  
C146     C      0.493950000000     0.001110000000     0.763180000000    -0.0324852  
C147     C      0.537470000000     0.024460000000     0.715310000000     0.0536883  
C148     C      0.513190000000     0.029300000000     0.852220000000     0.0402829  
C149     C      0.471290000000     0.958040000000     0.922020000000     0.288499   
C150     C      0.598950000000     0.042680000000     0.374420000000    -0.0592141  
C151     C      0.538430000000     0.049260000000     0.163110000000     0.0785394  
C152     C      0.590210000000     0.035850000000     0.159850000000     0.0796072  
C153     C      0.545270000000     0.053550000000     0.196730000000    -0.0932806  
C154     C      0.540360000000     0.013890000000     0.263020000000    -0.033079   
C155     C      0.538510000000     0.010890000000     0.296920000000    -0.0363712  
C156     C      0.574440000000     0.042580000000     0.248360000000    -0.00745607 
C157     C      0.598010000000     0.040080000000     0.193730000000    -0.0938961  
C158     C      0.570550000000     0.036930000000     0.316930000000    -0.000832898
C159     C      0.531610000000     0.027190000000     0.366050000000    -0.0855836  
C160     C      0.605250000000     0.064960000000     0.302160000000    -0.0368465  
C161     C      0.529030000000     0.027370000000     0.399750000000     0.0709001  
C162     C      0.595640000000     0.042260000000     0.408370000000     0.0271947  
C163     C      0.607240000000     0.067610000000     0.268050000000    -0.0332104  
C164     C      0.573920000000     0.047030000000     0.212490000000     0.0529655  
C165     C      0.567050000000     0.035610000000     0.352930000000     0.0394719  
C166     C      0.629980000000     0.046460000000     0.429020000000     0.291222   
C167     C      0.487970000000     0.652900000000     0.995630000000    -0.0573739  
C168     C      0.528110000000     0.889380000000     0.982000000000     0.0818434  
C169     C      0.475640000000     0.865800000000     0.017910000000     0.0789889  
C170     C      0.522720000000     0.852680000000     0.979570000000    -0.0954285  
C171     C      0.530900000000     0.786300000000     0.005820000000    -0.0329156  
C172     C      0.532170000000     0.752560000000     0.010660000000    -0.0374692  
C173     C      0.494660000000     0.785230000000     0.001120000000    -0.0080144  
C174     C      0.469580000000     0.828570000000     0.016230000000    -0.0937049  
C175     C      0.497300000000     0.716740000000     0.010710000000    -0.0011873  
C176     C      0.519230000000     0.679990000000     0.047520000000    -0.0873553  
C177     C      0.460890000000     0.715180000000     0.005360000000    -0.0380739  
C178     C      0.527770000000     0.650710000000     0.052990000000     0.0712364  
C179     C      0.497830000000     0.623930000000     0.001260000000     0.0230818  
C180     C      0.459550000000     0.749270000000     0.000910000000    -0.0334592  
C181     C      0.494520000000     0.822070000000     0.998050000000     0.0521648  
C182     C      0.500020000000     0.681900000000     0.018380000000     0.0382898  
C183     C      0.486000000000     0.595950000000     0.974840000000     0.297839   
C184     C      0.479950000000     0.144860000000     0.102530000000    -0.0576433  
C185     C      0.554900000000     0.397640000000     0.112340000000     0.0729757  
C186     C      0.487090000000     0.365950000000     0.096200000000     0.0770599  
C187     C      0.553090000000     0.362160000000     0.117280000000    -0.091693   
C188     C      0.551260000000     0.287890000000     0.106760000000    -0.0327729  
C189     C      0.549710000000     0.252830000000     0.103580000000    -0.0370754  
C190     C      0.516660000000     0.289560000000     0.109390000000    -0.00639825 
C191     C      0.484640000000     0.330290000000     0.099430000000    -0.0936467  
C192     C      0.513380000000     0.218000000000     0.101340000000     0.000358322
C193     C      0.542070000000     0.181610000000     0.077470000000    -0.0853857  
C194     C      0.478850000000     0.219410000000     0.105110000000    -0.0373905  
C195     C      0.540880000000     0.147630000000     0.070730000000     0.0685058  
C196     C      0.478810000000     0.110590000000     0.094720000000     0.0248085  
C197     C      0.480540000000     0.254350000000     0.109770000000    -0.0326069  
C198     C      0.518020000000     0.327590000000     0.109440000000     0.0495725  
C199     C      0.511720000000     0.181030000000     0.093890000000     0.0373147  
C200     C      0.445250000000     0.074080000000     0.106820000000     0.289127   
C201     C      0.858470000000     0.410710000000     0.464380000000    -0.0605132  
C202     C      0.676130000000     0.179030000000     0.517400000000     0.0803344  
C203     C      0.644830000000     0.182850000000     0.467060000000     0.0789637  
C204     C      0.709830000000     0.213870000000     0.510480000000    -0.0913268  
C205     C      0.785570000000     0.272600000000     0.481440000000    -0.0331875  
C206     C      0.820550000000     0.306870000000     0.475960000000    -0.0354755  
C207     C      0.748850000000     0.269080000000     0.472310000000    -0.00604354 
C208     C      0.678390000000     0.217730000000     0.459160000000    -0.0927684  
C209     C      0.819990000000     0.338580000000     0.460700000000    -0.000596163
C210     C      0.893180000000     0.377790000000     0.454400000000    -0.0862829  
C211     C      0.783310000000     0.334570000000     0.450210000000    -0.0360034  
C212     C      0.928730000000     0.411510000000     0.460930000000     0.0746595  
C213     C      0.894820000000     0.444750000000     0.469580000000     0.0366125  
C214     C      0.748130000000     0.300230000000     0.456010000000    -0.0323888  
C215     C      0.711770000000     0.233290000000     0.480720000000     0.0524314  
C216     C      0.857430000000     0.376250000000     0.458760000000     0.041056   
C217     C      0.894520000000     0.481300000000     0.471730000000     0.28884    
C218     C      0.174420000000     0.743720000000     0.549360000000    -0.0576057  
C219     C      0.394530000000     0.955190000000     0.595610000000     0.0739134  
C220     C      0.393750000000     0.924660000000     0.547310000000     0.0758784  
C221     C      0.357450000000     0.923910000000     0.603130000000    -0.0962654  
C222     C      0.266090000000     0.854740000000     0.584070000000    -0.0324129  
C223     C      0.231380000000     0.818980000000     0.582070000000    -0.0372369  
C224     C      0.302490000000     0.856740000000     0.590350000000    -0.00914364 
C225     C      0.357290000000     0.893260000000     0.554110000000    -0.0968018  
C226     C      0.232680000000     0.784800000000     0.586240000000     7.40517e-05
C227     C      0.187950000000     0.714180000000     0.596820000000    -0.0829839  
C228     C      0.268910000000     0.787150000000     0.595110000000    -0.0359497  
C229     C      0.155930000000     0.678810000000     0.587240000000     0.0732185  
C230     C      0.142000000000     0.708080000000     0.540420000000     0.0357193  
C231     C      0.303530000000     0.822830000000     0.596980000000    -0.0327476  
C232     C      0.339320000000     0.892180000000     0.582600000000     0.0526783  
C233     C      0.197520000000     0.747140000000     0.577800000000     0.041425   
C234     C      0.117360000000     0.708670000000     0.511670000000     0.292137   
C235     C      0.714940000000     0.590930000000     0.511050000000    -0.0571787  
C236     C      0.883370000000     0.512550000000     0.563940000000     0.0827071  
C237     C      0.923940000000     0.571280000000     0.591170000000     0.0797225  
C238     C      0.854110000000     0.522120000000     0.557450000000    -0.0939251  
C239     C      0.809150000000     0.559280000000     0.527530000000    -0.0312935  
C240     C      0.777990000000     0.566230000000     0.520660000000    -0.0373928  
C241     C      0.830590000000     0.569400000000     0.557870000000    -0.00794361 
C242     C      0.895440000000     0.581970000000     0.584770000000    -0.0949507  
C243     C      0.767670000000     0.583530000000     0.543960000000     0.000308913
C244     C      0.704650000000     0.568270000000     0.566800000000    -0.0825521  
C245     C      0.791040000000     0.596340000000     0.573180000000    -0.0382826  
C246     C      0.666410000000     0.561290000000     0.563020000000     0.0729146  
C247     C      0.676260000000     0.585040000000     0.508140000000     0.0250214  
C248     C      0.822020000000     0.589250000000     0.580120000000    -0.0327586  
C249     C      0.860480000000     0.557830000000     0.566760000000     0.0532047  
C250     C      0.729150000000     0.582100000000     0.540520000000     0.0379038  
C251     C      0.663970000000     0.596020000000     0.476460000000     0.293101   
C252     C      0.222270000000     0.619310000000     0.523560000000    -0.0579333  
C253     C      0.427480000000     0.586120000000     0.590770000000     0.0773354  
C254     C      0.395950000000     0.546300000000     0.544980000000     0.0836921  
C255     C      0.401710000000     0.600650000000     0.586930000000    -0.0937208  
C256     C      0.322540000000     0.599110000000     0.585770000000    -0.0330387  
C257     C      0.288420000000     0.601800000000     0.582030000000    -0.0373831  
C258     C      0.342100000000     0.599340000000     0.558230000000    -0.00706867 
C259     C      0.370240000000     0.560460000000     0.540230000000    -0.0912094  
C260     C      0.273200000000     0.604930000000     0.550680000000    -0.000223582
C261     C      0.202090000000     0.567030000000     0.562310000000    -0.0846004  
C262     C      0.294750000000     0.608640000000     0.523380000000    -0.0366392  
C263     C      0.163060000000     0.556910000000     0.555260000000     0.0691347  
C264     C      0.182370000000     0.608640000000     0.516800000000     0.0265501  
C265     C      0.328800000000     0.605800000000     0.527110000000    -0.033046   
C266     C      0.372480000000     0.587630000000     0.561470000000     0.0524726  
C267     C      0.232300000000     0.598060000000     0.546110000000     0.0385367  
C268     C      0.174770000000     0.631740000000     0.491360000000     0.291457   
C269     C      0.071110000000     0.527900000000     0.700320000000    -0.0615148  
C270     C      0.049250000000     0.479800000000     0.910750000000     0.0801644  
C271     C      0.025080000000     0.522990000000     0.905140000000     0.0844438  
C272     C      0.045610000000     0.475200000000     0.876770000000    -0.0925332  
C273     C      0.020240000000     0.461070000000     0.803420000000    -0.032532   
C274     C      0.021460000000     0.461500000000     0.769200000000    -0.0366312  
C275     C      0.032760000000     0.495270000000     0.820190000000    -0.00649466 
C276     C      0.021040000000     0.519030000000     0.871240000000    -0.0915151  
C277     C      0.035750000000     0.496220000000     0.751210000000    -0.000358463
C278     C      0.007180000000     0.471290000000     0.694710000000    -0.0843445  
C279     C      0.048050000000     0.530230000000     0.768100000000    -0.0364233  
C280     C      0.007880000000     0.477510000000     0.660750000000     0.0724498  
C281     C      0.071470000000     0.533340000000     0.666210000000     0.0293677  
C282     C      0.046620000000     0.529770000000     0.802040000000    -0.0319657  
C283     C      0.032350000000     0.495770000000     0.856500000000     0.053328   
C284     C      0.038130000000     0.497890000000     0.714980000000     0.0392927  
C285     C      0.109020000000     0.563870000000     0.652380000000     0.292677   
C286     C      0.018560000000     0.543110000000     0.370110000000    -0.0562301  
C287     C      0.976000000000     0.479210000000     0.163560000000     0.0770102  
C288     C      0.045170000000     0.504810000000     0.168680000000     0.0757854  
C289     C      0.974300000000     0.478360000000     0.197800000000    -0.0933138  
C290     C      0.990330000000     0.465770000000     0.274620000000    -0.0335505  
C291     C      0.994760000000     0.471040000000     0.308620000000    -0.0365339  
C292     C      0.010020000000     0.497330000000     0.253200000000    -0.0067884  
C293     C      0.044590000000     0.504780000000     0.202590000000    -0.0935159  
C294     C      0.018280000000     0.508030000000     0.321530000000     7.37209e-05
C295     C      0.035910000000     0.494150000000     0.378680000000    -0.084279   
C296     C      0.037220000000     0.539500000000     0.299900000000    -0.0361184  
C297     C      0.043240000000     0.502790000000     0.412000000000     0.0749494  
C298     C      0.026380000000     0.551590000000     0.403530000000     0.0265612  
C299     C      0.033360000000     0.534170000000     0.266180000000    -0.0326141  
C300     C      0.009150000000     0.492380000000     0.217510000000     0.0515551  
C301     C      0.023400000000     0.514400000000     0.357380000000     0.0396724  
C302     C      0.026030000000     0.586240000000     0.413770000000     0.303296   
C303     C      0.873070000000     0.373870000000     0.967520000000    -0.0603931  
C304     C      0.673880000000     0.133630000000     0.971490000000     0.0764855  
C305     C      0.665280000000     0.161130000000     0.017810000000     0.076031   
C306     C      0.710140000000     0.167010000000     0.966220000000    -0.0960155  
C307     C      0.771120000000     0.255020000000     0.954370000000    -0.033294   
C308     C      0.806800000000     0.289820000000     0.951630000000    -0.0371812  
C309     C      0.763140000000     0.232940000000     0.983470000000    -0.00833552 
C310     C      0.701670000000     0.194400000000     0.013720000000    -0.0958251  
C311     C      0.835340000000     0.302520000000     0.977680000000    -0.00169164 
C312     C      0.908620000000     0.341490000000     0.984090000000    -0.0877541  
C313     C      0.827610000000     0.279860000000     0.006430000000    -0.0370068  
C314     C      0.943150000000     0.376970000000     0.986830000000     0.0713622  
C315     C      0.908430000000     0.409510000000     0.970410000000     0.0244281  
C316     C      0.791740000000     0.245620000000     0.009400000000    -0.0340374  
C317     C      0.724420000000     0.197680000000     0.987650000000     0.0518864  
C318     C      0.872830000000     0.339720000000     0.975770000000     0.0383284  
C319     C      0.907460000000     0.444410000000     0.958420000000     0.287964   
C320     C      0.228820000000     0.642590000000     0.108890000000    -0.0579954  
C321     C      0.414450000000     0.878000000000     0.100230000000     0.0774554  
C322     C      0.464770000000     0.861890000000     0.104630000000     0.0735126  
C323     C      0.385690000000     0.839660000000     0.104460000000    -0.0944313  
C324     C      0.334790000000     0.757070000000     0.129380000000    -0.032996   
C325     C      0.299710000000     0.722310000000     0.124150000000    -0.0374854  
C326     C      0.364850000000     0.770650000000     0.107100000000    -0.00882939 
C327     C      0.436400000000     0.822800000000     0.107830000000    -0.0949241  
C328     C      0.293840000000     0.700820000000     0.096250000000    -0.000665186
C329     C      0.237340000000     0.671970000000     0.055430000000    -0.0824251  
C330     C      0.325170000000     0.712890000000     0.075380000000    -0.0384853  
C331     C      0.197340000000     0.647790000000     0.047940000000     0.0726153  
C332     C      0.188410000000     0.618390000000     0.100880000000     0.0236278  
C333     C      0.360560000000     0.747480000000     0.080910000000    -0.0324091  
C334     C      0.396370000000     0.811480000000     0.107410000000     0.0513848  
C335     C      0.253400000000     0.670130000000     0.086350000000     0.0377525  
C336     C      0.164350000000     0.593070000000     0.127710000000     0.298652   
C337     C      0.930170000000     0.604290000000     0.075360000000    -0.0565484  
C338     C      0.689690000000     0.551610000000     0.061250000000     0.0775568  
C339     C      0.696690000000     0.588010000000     0.012440000000     0.0751015  
C340     C      0.730040000000     0.565620000000     0.064150000000    -0.0935237  
C341     C      0.817470000000     0.605250000000     0.072980000000    -0.0328678  
C342     C      0.853060000000     0.605200000000     0.075140000000    -0.0367666  
C343     C      0.797500000000     0.602500000000     0.042460000000    -0.00705498 
C344     C      0.737760000000     0.602930000000     0.014710000000    -0.0923228  
C345     C      0.870240000000     0.603400000000     0.046760000000     0.000687529
C346     C      0.901540000000     0.568380000000     0.026350000000    -0.0808905  
C347     C      0.852850000000     0.605780000000     0.016130000000    -0.0369904  
C348     C      0.927410000000     0.554500000000     0.030330000000     0.0786992  
C349     C      0.955590000000     0.589000000000     0.079460000000     0.0263368  
C350     C      0.816740000000     0.604890000000     0.013990000000    -0.0326834  
C351     C      0.754920000000     0.591390000000     0.040710000000     0.0510225  
C352     C      0.902080000000     0.593280000000     0.049030000000     0.0390065  
C353     C      0.981080000000     0.599120000000     0.109870000000     0.289991   
C354     C      0.240360000000     0.596480000000     0.006580000000    -0.0573268  
C355     C      0.416190000000     0.534310000000     0.042930000000     0.0846806  
C356     C      0.447170000000     0.575050000000     0.088280000000     0.0784791  
C357     C      0.391920000000     0.549750000000     0.036310000000    -0.0896729  
C358     C      0.347370000000     0.595630000000     0.077040000000    -0.0332625  
C359     C      0.312850000000     0.597410000000     0.071770000000    -0.0381219  
C360     C      0.365870000000     0.591700000000     0.050530000000    -0.00737327 
C361     C      0.423140000000     0.591310000000     0.082270000000    -0.0938134  
C362     C      0.295750000000     0.594580000000     0.039950000000    -0.000749838
C363     C      0.225960000000     0.559560000000     0.056690000000    -0.0812609  
C364     C      0.316910000000     0.595290000000     0.013330000000    -0.0375705  
C365     C      0.186060000000     0.545860000000     0.049850000000     0.0744763  
C366     C      0.199780000000     0.582370000000     0.000150000000     0.0234936  
C367     C      0.351790000000     0.594300000000     0.018580000000    -0.0345232  
C368     C      0.394960000000     0.578540000000     0.056020000000     0.0532529  
C369     C      0.253830000000     0.584780000000     0.034850000000     0.0381686  
C370     C      0.188580000000     0.594650000000     0.968630000000     0.293481   
C371     C      0.701390000000     0.682580000000     0.604980000000    -0.0605202  
C372     C      0.890990000000     0.905460000000     0.529590000000     0.0803309  
C373     C      0.924910000000     0.906740000000     0.580060000000     0.0753412  
C374     C      0.859520000000     0.869660000000     0.537620000000    -0.0964325  
C375     C      0.788090000000     0.814780000000     0.574390000000    -0.0330397  
C376     C      0.753320000000     0.779840000000     0.577430000000    -0.0371018  
C377     C      0.824650000000     0.816480000000     0.577430000000    -0.00868943 
C378     C      0.893800000000     0.870520000000     0.588830000000    -0.0961234  
C379     C      0.754450000000     0.745980000000     0.583670000000    -0.00116323 
C380     C      0.697410000000     0.701360000000     0.548960000000    -0.0856114  
C381     C      0.790950000000     0.747840000000     0.589250000000    -0.0371346  
C382     C      0.660580000000     0.668810000000     0.545040000000     0.0762355  
C383     C      0.664020000000     0.649420000000     0.600460000000     0.0272267  
C384     C      0.826060000000     0.783100000000     0.586170000000    -0.0326929  
C385     C      0.860210000000     0.852350000000     0.567850000000     0.0533802  
C386     C      0.717630000000     0.709010000000     0.579290000000     0.0405582  
C387     C      0.649170000000     0.622930000000     0.629140000000     0.286171   
C388     C      0.405430000000     0.346030000000     0.479810000000    -0.0585693  
C389     C      0.152770000000     0.167780000000     0.465060000000     0.0754372  
C390     C      0.182240000000     0.129050000000     0.469760000000     0.0815102  
C391     C      0.188740000000     0.199990000000     0.457510000000    -0.0931069  
C392     C      0.268470000000     0.264990000000     0.437980000000    -0.0340626  
C393     C      0.303600000000     0.300180000000     0.441900000000    -0.036394   
C394     C      0.262380000000     0.232550000000     0.456920000000    -0.00578128 
C395     C      0.218780000000     0.160710000000     0.462210000000    -0.089811   
C396     C      0.333490000000     0.303650000000     0.464710000000    -0.00107446 
C397     C      0.363760000000     0.373470000000     0.476830000000    -0.0841172  
C398     C      0.328260000000     0.270680000000     0.482230000000    -0.0358995  
C399     C      0.395070000000     0.407260000000     0.489780000000     0.0686347  
C400     C      0.436490000000     0.380060000000     0.493370000000     0.0271885  
C401     C      0.293190000000     0.235620000000     0.478410000000    -0.0348183  
C402     C      0.222770000000     0.197150000000     0.457560000000     0.0511932  
C403     C      0.368270000000     0.341850000000     0.472800000000     0.0388254  
C404     C      0.473600000000     0.379710000000     0.501310000000     0.295574   
C405     C      0.705500000000     0.053340000000     0.577260000000    -0.0620394  
C406     C      0.906250000000     0.060680000000     0.487830000000     0.081817   
C407     C      0.909410000000     0.061570000000     0.545910000000     0.0849077  
C408     C      0.870240000000     0.060020000000     0.486860000000    -0.0975568  
C409     C      0.785570000000     0.011190000000     0.528840000000    -0.0327774  
C410     C      0.749930000000     0.002970000000     0.541120000000    -0.0371145  
C411     C      0.812440000000     0.048550000000     0.518130000000    -0.00983508 
C412     C      0.874680000000     0.062220000000     0.545830000000    -0.100306   
C413     C      0.740530000000     0.032030000000     0.542680000000    -0.00069582 
C414     C      0.669420000000     0.989550000000     0.555650000000    -0.0863331  
C415     C      0.766300000000     0.068750000000     0.529490000000    -0.0373178  
C416     C      0.634900000000     0.985870000000     0.566550000000     0.0743743  
C417     C      0.670290000000     0.048970000000     0.587700000000     0.025458   
C418     C      0.802250000000     0.077060000000     0.517600000000    -0.0327304  
C419     C      0.853690000000     0.059060000000     0.516330000000     0.0562112  
C420     C      0.704710000000     0.024700000000     0.558800000000     0.0390269  
C421     C      0.672230000000     0.079320000000     0.608340000000     0.291545   
C422     C      0.220530000000     0.076260000000     0.551440000000    -0.06116    
C423     C      0.402160000000     0.035950000000     0.548150000000     0.083481   
C424     C      0.394250000000     0.024070000000     0.491180000000     0.078745   
C425     C      0.363450000000     0.027030000000     0.549160000000    -0.0994453  
C426     C      0.276250000000     0.993590000000     0.546720000000    -0.0336134  
C427     C      0.246730000000     0.000240000000     0.555570000000    -0.0373215  
C428     C      0.301360000000     0.015750000000     0.521770000000    -0.00900183 
C429     C      0.355150000000     0.016160000000     0.491090000000    -0.0964995  
C430     C      0.241400000000     0.028900000000     0.539360000000    -0.00142543 
C431     C      0.176210000000     0.009050000000     0.561690000000    -0.0876189  
C432     C      0.264510000000     0.048900000000     0.512620000000    -0.037519   
C433     C      0.147950000000     0.017630000000     0.569830000000     0.0667275  
C434     C      0.191540000000     0.084270000000     0.560310000000     0.0270641  
C435     C      0.294320000000     0.042370000000     0.503890000000    -0.0327423  
C436     C      0.339810000000     0.018120000000     0.520410000000     0.0548829  
C437     C      0.212250000000     0.038210000000     0.550680000000     0.0379524  
C438     C      0.203340000000     0.125220000000     0.563820000000     0.290207   
C439     C      0.965710000000     0.856550000000     0.468790000000    -0.0584696  
C440     C      0.978960000000     0.643740000000     0.485420000000     0.0850523  
C441     C      0.987240000000     0.656240000000     0.542120000000     0.0863585  
C442     C      0.968220000000     0.671830000000     0.479300000000    -0.0920097  
C443     C      0.979110000000     0.752460000000     0.472930000000    -0.0310996  
C444     C      0.979850000000     0.787550000000     0.470810000000    -0.0368053  
C445     C      0.961990000000     0.726830000000     0.499440000000    -0.0069412  
C446     C      0.976510000000     0.684150000000     0.536960000000    -0.0939436  
C447     C      0.963770000000     0.797940000000     0.495270000000    -6.0198e-05 
C448     C      0.987600000000     0.858690000000     0.525150000000    -0.0842545  
C449     C      0.944420000000     0.771360000000     0.520570000000    -0.0374295  
C450     C      0.999180000000     0.897460000000     0.525450000000     0.0687604  
C451     C      0.977580000000     0.895850000000     0.469580000000     0.0255239  
C452     C      0.943260000000     0.736130000000     0.522490000000    -0.0327268  
C453     C      0.967840000000     0.693170000000     0.505190000000     0.0550392  
C454     C      0.971300000000     0.837870000000     0.496520000000     0.0379348  
C455     C      0.974890000000     0.914090000000     0.437920000000     0.286504   
C456     C      0.010600000000     0.199730000000     0.542510000000    -0.0579353  
C457     C      0.941430000000     0.368750000000     0.566470000000     0.0711351  
C458     C      0.009510000000     0.396960000000     0.581450000000     0.0719458  
C459     C      0.936830000000     0.331910000000     0.569660000000    -0.090993   
C460     C      0.953730000000     0.267970000000     0.549930000000    -0.0331583  
C461     C      0.958480000000     0.236120000000     0.547110000000    -0.0377209  
C462     C      0.967250000000     0.289850000000     0.578480000000    -0.00702899 
C463     C      0.005710000000     0.360760000000     0.585850000000    -0.0912693  
C464     C      0.976060000000     0.225000000000     0.573030000000    -0.00091139 
C465     C      0.976880000000     0.164570000000     0.590140000000    -0.0851792  
C466     C      0.987290000000     0.245400000000     0.602330000000    -0.0374037  
C467     C      0.989690000000     0.138510000000     0.585710000000     0.0684239  
C468     C      0.024730000000     0.174370000000     0.539380000000     0.0260598  
C469     C      0.983320000000     0.277750000000     0.604900000000    -0.0336604  
C470     C      0.969440000000     0.327710000000     0.578900000000     0.0487464  
C471     C      0.986960000000     0.195340000000     0.568160000000     0.0378737  
C472     C      0.054660000000     0.185560000000     0.514590000000     0.299172   
C473     C      0.011230000000     0.030090000000     0.859800000000    -0.0568149  
C474     C      0.087780000000     0.103410000000     0.656050000000     0.0787918  
C475     C      0.052340000000     0.035400000000     0.659740000000     0.0752496  
C476     C      0.087780000000     0.105610000000     0.690080000000    -0.0934533  
C477     C      0.056460000000     0.099650000000     0.757740000000    -0.0323951  
C478     C      0.048390000000     0.097670000000     0.790800000000    -0.0372519  
C479     C      0.064420000000     0.072730000000     0.744850000000    -0.00749269 
C480     C      0.051680000000     0.036530000000     0.693520000000    -0.0948858  
C481     C      0.047550000000     0.068410000000     0.811310000000     0.00019068 
C482     C      0.061450000000     0.096240000000     0.866780000000    -0.0831922  
C483     C      0.056590000000     0.042270000000     0.798720000000    -0.0371953  
C484     C      0.058560000000     0.090630000000     0.900540000000     0.0762776  
C485     C      0.009020000000     0.024930000000     0.893890000000     0.0266977  
C486     C      0.065260000000     0.044590000000     0.765980000000    -0.0322425  
C487     C      0.068680000000     0.071840000000     0.709150000000     0.052158   
C488     C      0.038770000000     0.065400000000     0.846200000000     0.0398135  
C489     C      0.985530000000     0.984790000000     0.906060000000     0.300408   
C490     C      0.098640000000     0.101170000000     0.189870000000    -0.0591809  
C491     C      0.087730000000     0.044720000000     0.405680000000     0.0854919  
C492     C      0.036710000000     0.058900000000     0.393610000000     0.0831068  
C493     C      0.098400000000     0.052010000000     0.373160000000    -0.0940533  
C494     C      0.102140000000     0.047150000000     0.300400000000    -0.0322082  
C495     C      0.107900000000     0.050110000000     0.266810000000    -0.0362049  
C496     C      0.085710000000     0.066720000000     0.314410000000    -0.00653279 
C497     C      0.045560000000     0.064930000000     0.360700000000    -0.0937182  
C498     C      0.096110000000     0.071630000000     0.245950000000     0.000113272
C499     C      0.094600000000     0.039900000000     0.193700000000    -0.0847298  
C500     C      0.080440000000     0.091770000000     0.260190000000    -0.036131   
C501     C      0.090660000000     0.038020000000     0.159630000000     0.0750698  
C502     C      0.091710000000     0.097420000000     0.155910000000     0.0318856  
C503     C      0.076210000000     0.090070000000     0.293830000000    -0.0322446  
C504     C      0.076790000000     0.061550000000     0.349850000000     0.0541915  
C505     C      0.097520000000     0.071290000000     0.209500000000     0.0406351  
C506     C      0.089470000000     0.129290000000     0.138420000000     0.299316   
C507     C      0.856810000000     0.868840000000     0.019740000000    -0.0593698  
C508     C      0.679400000000     0.645250000000     0.100110000000     0.0791969  
C509     C      0.678790000000     0.653000000000     0.042260000000     0.0845523  
C510     C      0.715890000000     0.679400000000     0.102880000000    -0.0976852  
C511     C      0.766680000000     0.768320000000     0.091460000000    -0.0323715  
C512     C      0.793410000000     0.806860000000     0.084320000000    -0.0376077  
C513     C      0.768080000000     0.739230000000     0.075270000000    -0.00957979 
C514     C      0.715270000000     0.685940000000     0.044020000000    -0.100143   
C515     C      0.821320000000     0.816450000000     0.060660000000    -0.0013284  
C516     C      0.874480000000     0.880740000000     0.077060000000    -0.0898047  
C517     C      0.824280000000     0.787340000000     0.046190000000    -0.037141   
C518     C      0.908890000000     0.913770000000     0.068760000000     0.0790078  
C519     C      0.891790000000     0.902540000000     0.011910000000     0.0296014  
C520     C      0.798070000000     0.749050000000     0.053620000000    -0.0323962  
C521     C      0.733540000000     0.700280000000     0.074470000000     0.0560219  
C522     C      0.849680000000     0.856640000000     0.052430000000     0.0418937  
C523     C      0.899650000000     0.910600000000     0.976760000000     0.301907   
C524     C      0.243990000000     0.185550000000     0.042090000000    -0.0577249  
C525     C      0.419160000000     0.393170000000     0.990010000000     0.0777125  
C526     C      0.466310000000     0.372950000000     0.997050000000     0.083121   
C527     C      0.389550000000     0.355750000000     0.983140000000    -0.0967498  
C528     C      0.333970000000     0.272180000000     0.965780000000    -0.0325038  
C529     C      0.299680000000     0.238000000000     0.972480000000    -0.0365213  
C530     C      0.366280000000     0.286190000000     0.988240000000    -0.00926965 
C531     C      0.437440000000     0.335230000000     0.990760000000    -0.0978112  
C532     C      0.297100000000     0.217350000000     0.001860000000    -0.000500522
C533     C      0.232100000000     0.161550000000     0.987390000000    -0.0900918  
C534     C      0.330430000000     0.230030000000     0.023260000000    -0.0384369  
C535     C      0.192210000000     0.141710000000     0.992340000000     0.0813657  
C536     C      0.203200000000     0.164400000000     0.046840000000     0.0383722  
C537     C      0.364970000000     0.264210000000     0.016380000000    -0.0315149  
C538     C      0.398370000000     0.326170000000     0.985540000000     0.05478    
C539     C      0.258100000000     0.186040000000     0.011380000000     0.040601   
C540     C      0.189490000000     0.169080000000     0.078270000000     0.291674   
C541     C      0.888490000000     0.033420000000     0.057360000000    -0.060042   
C542     C      0.646340000000     0.974690000000     0.080400000000     0.0756981  
C543     C      0.681320000000     0.029330000000     0.046120000000     0.0768212  
C544     C      0.681590000000     0.975180000000     0.090040000000    -0.0924202  
C545     C      0.790720000000     0.040670000000     0.089920000000    -0.0329185  
C546     C      0.827470000000     0.043090000000     0.091970000000    -0.0371251  
C547     C      0.755700000000     0.004990000000     0.086170000000    -0.00701346 
C548     C      0.716760000000     0.030760000000     0.055280000000    -0.0937956  
C549     C      0.830250000000     0.009890000000     0.090880000000    -0.00106134 
C550     C      0.886220000000     0.997490000000     0.106410000000    -0.0850401  
C551     C      0.795400000000     0.973900000000     0.089770000000    -0.0366235  
C552     C      0.923400000000     0.002970000000     0.100020000000     0.0712866  
C553     C      0.924480000000     0.036750000000     0.050440000000     0.0303561  
C554     C      0.758390000000     0.971460000000     0.087390000000    -0.0328819  
C555     C      0.717490000000     0.003610000000     0.077500000000     0.0508959  
C556     C      0.869030000000     0.013770000000     0.085340000000     0.0399468  
C557     C      0.938110000000     0.050960000000     0.016880000000     0.288705   
C558     C      0.199620000000     0.027590000000     0.003970000000    -0.064395   
C559     C      0.411640000000     0.033530000000     0.977900000000     0.0802385  
C560     C      0.380180000000     0.969520000000     0.998420000000     0.0811614  
C561     C      0.374950000000     0.030340000000     0.969700000000    -0.0917257  
C562     C      0.290870000000     0.012030000000     0.947860000000    -0.0332279  
C563     C      0.256210000000     0.014020000000     0.947560000000    -0.0371993  
C564     C      0.301160000000     0.994920000000     0.974570000000    -0.00656925 
C565     C      0.343080000000     0.965400000000     0.990660000000    -0.0923172  
C566     C      0.231540000000     0.999430000000     0.974150000000    -0.00185511 
C567     C      0.166530000000     0.993880000000     0.954720000000    -0.0847715  
C568     C      0.241040000000     0.981120000000     0.000180000000    -0.0370141  
C569     C      0.135650000000     0.000720000000     0.959690000000     0.0680672  
C570     C      0.168550000000     0.034120000000     0.008610000000     0.0199355  
C571     C      0.275240000000     0.978710000000     0.000320000000    -0.032386   
C572     C      0.340020000000     0.996480000000     0.977300000000     0.0523998  
C573     C      0.198860000000     0.007310000000     0.977150000000     0.0387182  
C574     C      0.170160000000     0.051150000000     0.040510000000     0.280361   
C575     C      0.048230000000     0.694920000000     0.993410000000    -0.0599253  
C576     C      0.082260000000     0.918340000000     0.054960000000     0.0829432  
C577     C      0.061700000000     0.913960000000     0.998780000000     0.0855208  
C578     C      0.089540000000     0.888150000000     0.051840000000    -0.0962389  
C579     C      0.108620000000     0.826270000000     0.033620000000    -0.0324465  
C580     C      0.104680000000     0.789990000000     0.032600000000    -0.0364046  
C581     C      0.079140000000     0.832600000000     0.019020000000    -0.00830156 
C582     C      0.069350000000     0.884600000000     0.994650000000    -0.0991096  
C583     C      0.071000000000     0.759430000000     0.017280000000     4.6747e-05 
C584     C      0.072230000000     0.706590000000     0.049540000000    -0.084543   
C585     C      0.042110000000     0.766140000000     0.001950000000    -0.0360825  
C586     C      0.066120000000     0.669720000000     0.052230000000     0.0805031  
C587     C      0.041220000000     0.657180000000     0.996920000000     0.0301767  
C588     C      0.046120000000     0.802330000000     0.002830000000    -0.0317819  
C589     C      0.081030000000     0.869790000000     0.021700000000     0.0556411  
C590     C      0.064450000000     0.720020000000     0.019740000000     0.0420177  
C591     C      0.019980000000     0.631200000000     0.969100000000     0.286476   
C592     C      0.009760000000     0.191080000000     0.004820000000    -0.0552688  
C593     C      0.037840000000     0.392540000000     0.084640000000     0.0745974  
C594     C      0.969460000000     0.368530000000     0.073470000000     0.0779996  
C595     C      0.032160000000     0.355810000000     0.082290000000    -0.0962925  
C596     C      0.007000000000     0.271460000000     0.085730000000    -0.0318631  
C597     C      0.007330000000     0.239180000000     0.076080000000    -0.0366395  
C598     C      0.989910000000     0.288120000000     0.064970000000    -0.00963324 
C599     C      0.962830000000     0.331530000000     0.070240000000    -0.0982397  
C600     C      0.990500000000     0.222720000000     0.045440000000     0.000429147
C601     C      0.990510000000     0.162520000000     0.058310000000    -0.0815118  
C602     C      0.972430000000     0.238770000000     0.024890000000    -0.0380844  
C603     C      0.007480000000     0.140610000000     0.053650000000     0.0865462  
C604     C      0.025810000000     0.167410000000     0.000100000000     0.0315286  
C605     C      0.971890000000     0.271190000000     0.034730000000    -0.0318684  
C606     C      0.994690000000     0.325320000000     0.073340000000     0.0529487  
C607     C      0.994680000000     0.190470000000     0.035110000000     0.0421168  
C608     C      0.044820000000     0.171860000000     0.968660000000     0.282847   
Co1      Co     0.058070000000     0.079350000000     0.045720000000     0.845453   
Co2      Co     0.020040000000     0.991510000000     0.990300000000     1.16963    
Co3      Co     0.078880000000     0.078000000000     0.007690000000     0.845226   
Co4      Co     0.030440000000     0.995230000000     0.070800000000     1.14034    
Co5      Co     0.070850000000     0.024500000000     0.512740000000     1.08577    
Co6      Co     0.999970000000     0.033100000000     0.567570000000     1.10114    
Co7      Co     0.988060000000     0.015950000000     0.490190000000     1.08136    
Co8      Co     0.080300000000     0.100340000000     0.541450000000     1.07149    
Co9      Co     0.056570000000     0.482060000000     0.022980000000     1.09154    
Co10     Co     0.057300000000     0.558910000000     0.077650000000     1.10662    
Co11     Co     0.982640000000     0.485050000000     0.048040000000     1.08796    
Co12     Co     0.077600000000     0.567620000000     0.002810000000     1.08065    
Co13     Co     0.039250000000     0.500720000000     0.519840000000     0.894264   
Co14     Co     0.036930000000     0.581640000000     0.577090000000     1.15205    
Co15     Co     0.985810000000     0.495510000000     0.549870000000     1.10927    
Co16     Co     0.051490000000     0.586100000000     0.501560000000     1.14431    
Co17     Co     0.483010000000     0.001110000000     0.063850000000     0.92422    
Co18     Co     0.570990000000     0.015100000000     0.996690000000     1.13591    
Co19     Co     0.538470000000     0.069150000000     0.015880000000     1.10097    
Co20     Co     0.531030000000     0.978820000000     0.063500000000     1.0519     
Co21     Co     0.518050000000     0.061870000000     0.569310000000     1.09691    
Co22     Co     0.594890000000     0.055200000000     0.519340000000     1.0858     
Co23     Co     0.527990000000     0.073340000000     0.491560000000     1.06532    
Co24     Co     0.519030000000     0.987390000000     0.550520000000     1.07671    
Co25     Co     0.562790000000     0.482230000000     0.041550000000     1.09384    
Co26     Co     0.550030000000     0.557660000000     0.091010000000     1.07395    
Co27     Co     0.483310000000     0.473890000000     0.065950000000     1.10046    
Co28     Co     0.565850000000     0.559030000000     0.015680000000     1.09409    
Co29     Co     0.540550000000     0.492670000000     0.541840000000     1.10861    
Co30     Co     0.531220000000     0.569210000000     0.589110000000     1.10743    
Co31     Co     0.462700000000     0.484560000000     0.567620000000     1.06399    
Co32     Co     0.547180000000     0.570070000000     0.513300000000     1.06626    
H1       H      0.441630000000     0.458890000000     0.667580000000     0.0235845  
H2       H      0.500390000000     0.517600000000     0.936000000000     0.0427867  
H3       H      0.484780000000     0.422280000000     0.772460000000     0.0396589  
H4       H      0.544970000000     0.543680000000     0.833810000000     0.0429877  
H5       H      0.489830000000     0.510470000000     0.878050000000     0.0552277  
H6       H      0.537440000000     0.545440000000     0.774300000000     0.0399791  
H7       H      0.556000000000     0.452620000000     0.878970000000     0.0575316  
H8       H      0.444970000000     0.446810000000     0.726710000000     0.0547964  
H9       H      0.570000000000     0.527130000000     0.729140000000     0.0563656  
H10      H      0.492880000000     0.420560000000     0.832720000000     0.0415351  
H11      H      0.566060000000     0.538170000000     0.671060000000     0.0386036  
H12      H      0.618800000000     0.446370000000     0.941860000000     0.180442   
H13      H      0.453960000000     0.446840000000     0.163190000000     0.0238468  
H14      H      0.476470000000     0.518710000000     0.432640000000     0.0382435  
H15      H      0.492470000000     0.421710000000     0.277680000000     0.0404591  
H16      H      0.518110000000     0.541400000000     0.329270000000     0.0417334  
H17      H      0.467810000000     0.507860000000     0.374650000000     0.0537273  
H18      H      0.518780000000     0.539140000000     0.269800000000     0.0396049  
H19      H      0.547790000000     0.464750000000     0.382380000000     0.0573762  
H20      H      0.447980000000     0.438890000000     0.222550000000     0.0557992  
H21      H      0.571320000000     0.522920000000     0.235940000000     0.0564001  
H22      H      0.492510000000     0.424060000000     0.337670000000     0.042995   
H23      H      0.576790000000     0.529610000000     0.177170000000     0.028367   
H24      H      0.622580000000     0.486730000000     0.447500000000     0.185247   
H25      H      0.482960000000     0.907340000000     0.487380000000     0.0275417  
H26      H      0.528490000000     0.664910000000     0.573900000000     0.0254677  
H27      H      0.484090000000     0.799450000000     0.456470000000     0.039051   
H28      H      0.579170000000     0.782370000000     0.530390000000     0.0395921  
H29      H      0.534900000000     0.725890000000     0.559810000000     0.0518044  
H30      H      0.588110000000     0.846050000000     0.521670000000     0.0368363  
H31      H      0.495180000000     0.689770000000     0.460810000000     0.0574893  
H32      H      0.477310000000     0.845370000000     0.483470000000     0.0534757  
H33      H      0.604310000000     0.900190000000     0.487700000000     0.0532831  
H34      H      0.473810000000     0.735080000000     0.466890000000     0.0406949  
H35      H      0.608760000000     0.961920000000     0.492950000000     0.0351616  
H36      H      0.474690000000     0.606100000000     0.421500000000     0.180859   
H37      H      0.573560000000     0.447160000000     0.605970000000     0.0276323  
H38      H      0.525760000000     0.172040000000     0.504150000000     0.02611    
H39      H      0.576910000000     0.336360000000     0.628470000000     0.0387083  
H40      H      0.479460000000     0.235180000000     0.553940000000     0.0398695  
H41      H      0.518110000000     0.223890000000     0.520900000000     0.0524273  
H42      H      0.469050000000     0.286830000000     0.567790000000     0.0423945  
H43      H      0.574810000000     0.224310000000     0.614480000000     0.0575797  
H44      H      0.580640000000     0.391490000000     0.606870000000     0.0551701  
H45      H      0.453790000000     0.319040000000     0.604630000000     0.0553936  
H46      H      0.589300000000     0.286760000000     0.612010000000     0.0410455  
H47      H      0.447940000000     0.376250000000     0.601800000000     0.0257528  
H48      H      0.610680000000     0.166370000000     0.647680000000     0.182143   
H49      H      0.506810000000     0.963500000000     0.651780000000     0.0240866  
H50      H      0.542810000000     0.091420000000     0.914390000000     0.0243632  
H51      H      0.469270000000     0.981420000000     0.747530000000     0.0383364  
H52      H      0.580620000000     0.072640000000     0.820040000000     0.0404258  
H53      H      0.541850000000     0.091110000000     0.855150000000     0.0524503  
H54      H      0.591580000000     0.069440000000     0.762740000000     0.0400279  
H55      H      0.481120000000     0.967730000000     0.857780000000     0.0607061  
H56      H      0.502290000000     0.962610000000     0.710790000000     0.0549588  
H57      H      0.574650000000     0.086240000000     0.710180000000     0.056275   
H58      H      0.458630000000     0.984200000000     0.805120000000     0.0408725  
H59      H      0.579490000000     0.085970000000     0.651890000000     0.0386973  
H60      H      0.452360000000     0.901000000000     0.921240000000     0.183403   
H61      H      0.607540000000     0.027900000000     0.146110000000     0.0314626  
H62      H      0.501100000000     0.021760000000     0.408370000000     0.0289044  
H63      H      0.633730000000     0.089980000000     0.257070000000     0.0400535  
H64      H      0.511760000000     0.988340000000     0.307420000000     0.0404475  
H65      H      0.506100000000     0.021690000000     0.350370000000     0.0523573  
H66      H      0.514890000000     0.994000000000     0.248120000000     0.0420682  
H67      H      0.626110000000     0.047370000000     0.364820000000     0.0569601  
H68      H      0.620730000000     0.035280000000     0.205350000000     0.0564963  
H69      H      0.526740000000     0.059810000000     0.210600000000     0.0588478  
H70      H      0.630360000000     0.085660000000     0.316840000000     0.042438   
H71      H      0.514730000000     0.052880000000     0.152010000000     0.0423169  
H72      H      0.689640000000     0.077980000000     0.435190000000     0.178779   
H73      H      0.456840000000     0.870060000000     0.033230000000     0.0322438  
H74      H      0.543200000000     0.651340000000     0.076090000000     0.024534   
H75      H      0.431190000000     0.747540000000     0.997390000000     0.0378972  
H76      H      0.560590000000     0.754470000000     0.014790000000     0.0417775  
H77      H      0.528660000000     0.701820000000     0.065830000000     0.051806   
H78      H      0.558470000000     0.813420000000     0.006760000000     0.0394616  
H79      H      0.473030000000     0.654110000000     0.972770000000     0.0538916  
H80      H      0.447130000000     0.805650000000     0.030660000000     0.0527805  
H81      H      0.541830000000     0.848700000000     0.964390000000     0.0561999  
H82      H      0.433610000000     0.687790000000     0.005550000000     0.0412368  
H83      H      0.551530000000     0.912490000000     0.968410000000     0.0260902  
H84      H      0.438740000000     0.553920000000     0.949720000000     0.181872   
H85      H      0.460530000000     0.366080000000     0.087480000000     0.0244421  
H86      H      0.565370000000     0.150480000000     0.057700000000     0.021856   
H87      H      0.453010000000     0.253290000000     0.113100000000     0.0375287  
H88      H      0.577420000000     0.253550000000     0.102370000000     0.0388074  
H89      H      0.566740000000     0.208150000000     0.068900000000     0.0503875  
H90      H      0.579930000000     0.313610000000     0.106090000000     0.0373287  
H91      H      0.456530000000     0.142990000000     0.116370000000     0.0566141  
H92      H      0.456760000000     0.305400000000     0.092440000000     0.0518161  
H93      H      0.579540000000     0.362370000000     0.126560000000     0.052814   
H94      H      0.450070000000     0.193760000000     0.103610000000     0.0418064  
H95      H      0.582930000000     0.423580000000     0.117230000000     0.0258338  
H96      H      0.386030000000     0.045320000000     0.112010000000     0.181393   
H97      H      0.619940000000     0.171300000000     0.449430000000     0.0251896  
H98      H      0.955580000000     0.410340000000     0.460080000000     0.0265466  
H99      H      0.720380000000     0.298550000000     0.448630000000     0.0395151  
H100     H      0.848000000000     0.308810000000     0.484910000000     0.0387456  
H101     H      0.893850000000     0.352420000000     0.448070000000     0.0517695  
H102     H      0.787390000000     0.248960000000     0.493340000000     0.0385494  
H103     H      0.831250000000     0.410980000000     0.465860000000     0.061203   
H104     H      0.678500000000     0.231700000000     0.435880000000     0.0548064  
H105     H      0.734350000000     0.225350000000     0.528420000000     0.0577982  
H106     H      0.781660000000     0.358130000000     0.437980000000     0.0411331  
H107     H      0.676320000000     0.164760000000     0.540500000000     0.0433303  
H108     H      0.862010000000     0.504420000000     0.484420000000     0.181065   
H109     H      0.406790000000     0.923770000000     0.525100000000     0.0310667  
H110     H      0.150110000000     0.654040000000     0.602670000000     0.0356113  
H111     H      0.331500000000     0.823880000000     0.601400000000     0.0398198  
H112     H      0.203760000000     0.818030000000     0.575690000000     0.0407823  
H113     H      0.205160000000     0.715620000000     0.619030000000     0.0557     
H114     H      0.264810000000     0.880590000000     0.578450000000     0.0384482  
H115     H      0.181470000000     0.768920000000     0.534110000000     0.0578252  
H116     H      0.343540000000     0.869410000000     0.537440000000     0.0581     
H117     H      0.343800000000     0.923930000000     0.625220000000     0.0540524  
H118     H      0.270970000000     0.761430000000     0.598280000000     0.0423127  
H119     H      0.408760000000     0.978890000000     0.612410000000     0.0212866  
H120     H      0.118520000000     0.723540000000     0.463500000000     0.18379    
H121     H      0.951230000000     0.591570000000     0.603930000000     0.0215341  
H122     H      0.648610000000     0.548910000000     0.584180000000     0.0514945  
H123     H      0.837870000000     0.597590000000     0.603660000000     0.0375115  
H124     H      0.760490000000     0.555920000000     0.497990000000     0.0440979  
H125     H      0.714110000000     0.560650000000     0.589970000000     0.0559593  
H126     H      0.815690000000     0.544920000000     0.509410000000     0.0396188  
H127     H      0.733900000000     0.602420000000     0.490480000000     0.0562632  
H128     H      0.901610000000     0.609730000000     0.592740000000     0.0525097  
H129     H      0.826890000000     0.501800000000     0.544670000000     0.0586103  
H130     H      0.784040000000     0.610150000000     0.591480000000     0.0403209  
H131     H      0.877780000000     0.485290000000     0.555090000000     0.0410633  
H132     H      0.660960000000     0.589800000000     0.427270000000     0.18619    
H133     H      0.392580000000     0.524940000000     0.528020000000     0.039422   
H134     H      0.141280000000     0.532010000000     0.568520000000     0.0394637  
H135     H      0.343610000000     0.606710000000     0.505440000000     0.0417988  
H136     H      0.272690000000     0.599320000000     0.603580000000     0.0411068  
H137     H      0.208320000000     0.549370000000     0.579600000000     0.0542739  
H138     H      0.331930000000     0.594140000000     0.610060000000     0.0389236  
H139     H      0.245360000000     0.643510000000     0.510580000000     0.0549912  
H140     H      0.347770000000     0.549060000000     0.520560000000     0.0585306  
H141     H      0.404520000000     0.621740000000     0.603860000000     0.0539723  
H142     H      0.283810000000     0.610950000000     0.498910000000     0.0427485  
H143     H      0.449690000000     0.596800000000     0.610700000000     0.0222004  
H144     H      0.150160000000     0.630150000000     0.445850000000     0.186507   
H145     H      0.016680000000     0.541950000000     0.915320000000     0.0410753  
H146     H      0.982000000000     0.457640000000     0.646190000000     0.031998   
H147     H      0.057020000000     0.556730000000     0.814120000000     0.0406272  
H148     H      0.011850000000     0.434840000000     0.756900000000     0.0403178  
H149     H      0.981410000000     0.447170000000     0.705060000000     0.0535052  
H150     H      0.009220000000     0.433980000000     0.816700000000     0.0396138  
H151     H      0.096640000000     0.547110000000     0.715560000000     0.0592712  
H152     H      0.009720000000     0.534740000000     0.856610000000     0.0578676  
H153     H      0.054670000000     0.456890000000     0.866430000000     0.055687   
H154     H      0.058660000000     0.557400000000     0.755000000000     0.0438782  
H155     H      0.060670000000     0.464230000000     0.925510000000     0.026213   
H156     H      0.144800000000     0.578160000000     0.614450000000     0.1833     
H157     H      0.073620000000     0.515400000000     0.158340000000     0.0371025  
H158     H      0.052230000000     0.485910000000     0.427730000000     0.0276414  
H159     H      0.048940000000     0.558910000000     0.250120000000     0.0426959  
H160     H      0.979710000000     0.446340000000     0.324790000000     0.0413138  
H161     H      0.040600000000     0.472120000000     0.369570000000     0.0536853  
H162     H      0.972450000000     0.437070000000     0.265130000000     0.0398521  
H163     H      0.009980000000     0.559840000000     0.353730000000     0.0599918  
H164     H      0.072020000000     0.515350000000     0.217100000000     0.0573023  
H165     H      0.946300000000     0.468450000000     0.208670000000     0.0567455  
H166     H      0.055750000000     0.568270000000     0.309140000000     0.0432118  
H167     H      0.948830000000     0.469640000000     0.148840000000     0.0285296  
H168     H      0.996600000000     0.615550000000     0.407800000000     0.18333    
H169     H      0.648540000000     0.159940000000     0.038270000000     0.0283339  
H170     H      0.969720000000     0.376550000000     0.994970000000     0.0263447  
H171     H      0.786230000000     0.229050000000     0.032060000000     0.0389919  
H172     H      0.812140000000     0.306750000000     0.929200000000     0.0412735  
H173     H      0.909740000000     0.315540000000     0.989700000000     0.0503971  
H174     H      0.749340000000     0.245850000000     0.934130000000     0.0392465  
H175     H      0.845720000000     0.372750000000     0.959450000000     0.0596665  
H176     H      0.711800000000     0.217650000000     0.030710000000     0.0551089  
H177     H      0.727160000000     0.168590000000     0.945870000000     0.0549154  
H178     H      0.849000000000     0.289140000000     0.026960000000     0.0382317  
H179     H      0.663840000000     0.110300000000     0.954580000000     0.0229443  
H180     H      0.873350000000     0.469010000000     0.953590000000     0.183791   
H181     H      0.495460000000     0.869720000000     0.104230000000     0.0311771  
H182     H      0.186540000000     0.651400000000     0.023800000000     0.0412921  
H183     H      0.383240000000     0.757540000000     0.063260000000     0.0362528  
H184     H      0.276010000000     0.713920000000     0.140490000000     0.042356   
H185     H      0.255210000000     0.693400000000     0.037460000000     0.0553191  
H186     H      0.337440000000     0.774580000000     0.149670000000     0.0400291  
H187     H      0.240740000000     0.641230000000     0.133250000000     0.0540113  
H188     H      0.445590000000     0.801610000000     0.110000000000     0.0540999  
H189     H      0.354960000000     0.831910000000     0.103890000000     0.0564535  
H190     H      0.321420000000     0.696710000000     0.053790000000     0.0404301  
H191     H      0.404660000000     0.898740000000     0.096950000000     0.0277869  
H192     H      0.158700000000     0.551340000000     0.160440000000     0.180996   
H193     H      0.684360000000     0.597060000000     0.991860000000     0.0233047  
H194     H      0.924820000000     0.535160000000     0.011620000000     0.046706   
H195     H      0.802720000000     0.603290000000     0.990010000000     0.0391852  
H196     H      0.865380000000     0.603720000000     0.099210000000     0.0414478  
H197     H      0.880010000000     0.558010000000     0.005960000000     0.0555999  
H198     H      0.804410000000     0.605020000000     0.095490000000     0.0389275  
H199     H      0.931410000000     0.623610000000     0.093440000000     0.0547997  
H200     H      0.755750000000     0.622990000000     0.996040000000     0.053118   
H201     H      0.741220000000     0.554820000000     0.084230000000     0.0550483  
H202     H      0.865910000000     0.606010000000     0.993620000000     0.0419075  
H203     H      0.672100000000     0.531440000000     0.080100000000     0.0332048  
H204     H      0.993940000000     0.577160000000     0.151430000000     0.179126   
H205     H      0.468730000000     0.585670000000     0.108670000000     0.0205544  
H206     H      0.166110000000     0.526130000000     0.067800000000     0.0417198  
H207     H      0.366170000000     0.592720000000     0.997550000000     0.0425992  
H208     H      0.298160000000     0.598400000000     0.092820000000     0.0416464  
H209     H      0.234540000000     0.548840000000     0.078550000000     0.0565756  
H210     H      0.357600000000     0.594200000000     0.101990000000     0.0383146  
H211     H      0.261300000000     0.616270000000     0.989260000000     0.0512598  
H212     H      0.426540000000     0.613560000000     0.098120000000     0.0529704  
H213     H      0.369940000000     0.538080000000     0.016310000000     0.0599699  
H214     H      0.305080000000     0.593450000000     0.988430000000     0.0425656  
H215     H      0.412380000000     0.511960000000     0.026910000000     0.0359     
H216     H      0.187320000000     0.590420000000     0.919330000000     0.18231    
H217     H      0.950070000000     0.920730000000     0.597240000000     0.0264192  
H218     H      0.646010000000     0.665050000000     0.520970000000     0.0395124  
H219     H      0.854030000000     0.783900000000     0.588590000000     0.037803   
H220     H      0.725380000000     0.778920000000     0.573210000000     0.041401   
H221     H      0.709650000000     0.721120000000     0.528410000000     0.0574429  
H222     H      0.786380000000     0.840290000000     0.568110000000     0.0388563  
H223     H      0.717410000000     0.688140000000     0.628550000000     0.0567298  
H224     H      0.895320000000     0.857600000000     0.612290000000     0.0543633  
H225     H      0.834310000000     0.855900000000     0.520480000000     0.0569834  
H226     H      0.792250000000     0.721860000000     0.593890000000     0.0407218  
H227     H      0.888800000000     0.918100000000     0.506140000000     0.0262919  
H228     H      0.638580000000     0.620030000000     0.677340000000     0.178424   
H229     H      0.180850000000     0.101810000000     0.474980000000     0.0263114  
H230     H      0.389330000000     0.430440000000     0.493030000000     0.0322572  
H231     H      0.289420000000     0.211530000000     0.493820000000     0.0428357  
H232     H      0.306960000000     0.324900000000     0.427670000000     0.0403049  
H233     H      0.335540000000     0.371650000000     0.471600000000     0.0526325  
H234     H      0.245620000000     0.263510000000     0.420820000000     0.0392105  
H235     H      0.409830000000     0.322100000000     0.475980000000     0.0547035  
H236     H      0.244080000000     0.156960000000     0.461580000000     0.0562465  
H237     H      0.190160000000     0.227390000000     0.453900000000     0.0548145  
H238     H      0.350370000000     0.272370000000     0.500370000000     0.0403359  
H239     H      0.127520000000     0.171600000000     0.466100000000     0.0304063  
H240     H      0.514530000000     0.371000000000     0.481920000000     0.18825    
H241     H      0.923530000000     0.061420000000     0.569530000000     0.0194338  
H242     H      0.607610000000     0.959420000000     0.561010000000     0.0271405  
H243     H      0.823020000000     0.106180000000     0.509930000000     0.0396717  
H244     H      0.730950000000     0.974490000000     0.551120000000     0.0383972  
H245     H      0.667670000000     0.966020000000     0.542630000000     0.0507642  
H246     H      0.793540000000     0.989080000000     0.530020000000     0.0400863  
H247     H      0.733300000000     0.079190000000     0.582930000000     0.0602774  
H248     H      0.862680000000     0.062090000000     0.568950000000     0.0570989  
H249     H      0.854420000000     0.057810000000     0.463660000000     0.0571022  
H250     H      0.759340000000     0.091480000000     0.529460000000     0.0416945  
H251     H      0.917600000000     0.059040000000     0.464940000000     0.0242312  
H252     H      0.706000000000     0.135150000000     0.621440000000     0.186308   
H253     H      0.405920000000     0.023150000000     0.468230000000     0.0238907  
H254     H      0.119700000000     0.993580000000     0.576650000000     0.0294848  
H255     H      0.313650000000     0.060110000000     0.484820000000     0.0387549  
H256     H      0.229610000000     0.984350000000     0.576320000000     0.0387339  
H257     H      0.168830000000     0.979310000000     0.562420000000     0.051456   
H258     H      0.281400000000     0.973070000000     0.560970000000     0.0376305  
H259     H      0.249630000000     0.099580000000     0.545680000000     0.0573799  
H260     H      0.337430000000     0.009420000000     0.468380000000     0.0554619  
H261     H      0.352780000000     0.029170000000     0.572230000000     0.0558301  
H262     H      0.260400000000     0.070470000000     0.499130000000     0.0398392  
H263     H      0.419540000000     0.043690000000     0.571100000000     0.0217315  
H264     H      0.238080000000     0.179240000000     0.545730000000     0.179943   
H265     H      0.994870000000     0.651380000000     0.567110000000     0.0224306  
H266     H      0.011770000000     0.912120000000     0.548420000000     0.0340341  
H267     H      0.928900000000     0.716750000000     0.542780000000     0.036997   
H268     H      0.995220000000     0.807590000000     0.451150000000     0.0424484  
H269     H      0.992730000000     0.845400000000     0.547090000000     0.0520022  
H270     H      0.994130000000     0.746580000000     0.454860000000     0.0409957  
H271     H      0.953610000000     0.840920000000     0.446210000000     0.0572999  
H272     H      0.977050000000     0.699890000000     0.557810000000     0.0540716  
H273     H      0.961090000000     0.677290000000     0.454380000000     0.0560527  
H274     H      0.931290000000     0.778380000000     0.539520000000     0.039243   
H275     H      0.980010000000     0.628660000000     0.464700000000     0.0338439  
H276     H      0.938660000000     0.908240000000     0.398210000000     0.180099   
H277     H      0.038590000000     0.421770000000     0.585890000000     0.0318521  
H278     H      0.980460000000     0.114800000000     0.603180000000     0.0235821  
H279     H      0.994050000000     0.294130000000     0.627160000000     0.0393609  
H280     H      0.949620000000     0.220900000000     0.524240000000     0.0424369  
H281     H      0.958940000000     0.160500000000     0.610570000000     0.0515692  
H282     H      0.941640000000     0.276830000000     0.529060000000     0.0387373  
H283     H      0.020080000000     0.224420000000     0.526030000000     0.0563103  
H284     H      0.031650000000     0.358810000000     0.592970000000     0.0552125  
H285     H      0.908220000000     0.306960000000     0.564180000000     0.0535241  
H286     H      0.001220000000     0.237670000000     0.622580000000     0.0411504  
H287     H      0.915900000000     0.370980000000     0.558220000000     0.0325123  
H288     H      0.111790000000     0.201460000000     0.508540000000     0.178883   
H289     H      0.037840000000     0.007300000000     0.648760000000     0.0284984  
H290     H      0.077610000000     0.115130000000     0.915780000000     0.0443369  
H291     H      0.072270000000     0.024020000000     0.757170000000     0.0390072  
H292     H      0.041850000000     0.118350000000     0.800140000000     0.0416906  
H293     H      0.083000000000     0.124000000000     0.857010000000     0.0553897  
H294     H      0.055180000000     0.121460000000     0.742130000000     0.0385425  
H295     H      0.993730000000     0.005810000000     0.843940000000     0.0561733  
H296     H      0.036280000000     0.009620000000     0.707040000000     0.0542862  
H297     H      0.102030000000     0.133540000000     0.701230000000     0.0556394  
H298     H      0.057210000000     0.020100000000     0.814330000000     0.0430168  
H299     H      0.101710000000     0.130050000000     0.641940000000     0.0306014  
H300     H      0.989440000000     0.942200000000     0.931500000000     0.186223   
H301     H      0.012130000000     0.061510000000     0.400750000000     0.0279477  
H302     H      0.087700000000     0.012630000000     0.148890000000     0.0256826  
H303     H      0.064740000000     0.106740000000     0.303430000000     0.0391139  
H304     H      0.121000000000     0.034850000000     0.257330000000     0.0400604  
H305     H      0.093520000000     0.015780000000     0.207310000000     0.052381   
H306     H      0.109640000000     0.028520000000     0.315040000000     0.0391345  
H307     H      0.103340000000     0.127080000000     0.200890000000     0.0543363  
H308     H      0.027040000000     0.071170000000     0.343920000000     0.0554267  
H309     H      0.123510000000     0.050120000000     0.366570000000     0.0549667  
H310     H      0.070020000000     0.108120000000     0.245500000000     0.0412937  
H311     H      0.104930000000     0.036990000000     0.422790000000     0.0253095  
H312     H      0.121100000000     0.186200000000     0.127150000000     0.194627   
H313     H      0.665110000000     0.643820000000     0.018010000000     0.0222857  
H314     H      0.928570000000     0.930650000000     0.088840000000     0.0205883  
H315     H      0.799690000000     0.726990000000     0.040950000000     0.0390823  
H316     H      0.791360000000     0.829080000000     0.096260000000     0.0391094  
H317     H      0.869300000000     0.872460000000     0.102620000000     0.0528508  
H318     H      0.743400000000     0.761320000000     0.107900000000     0.0383338  
H319     H      0.836970000000     0.850450000000     0.000400000000     0.0561053  
H320     H      0.727890000000     0.701390000000     0.021520000000     0.0567286  
H321     H      0.729540000000     0.689930000000     0.126840000000     0.0549231  
H322     H      0.846620000000     0.794240000000     0.028780000000     0.0436129  
H323     H      0.665510000000     0.629980000000     0.122310000000     0.0221559  
H324     H      0.879080000000     0.921920000000     0.933400000000     0.198581   
H325     H      0.495950000000     0.378460000000     0.003050000000     0.0371778  
H326     H      0.172880000000     0.124250000000     0.972330000000     0.0377282  
H327     H      0.389610000000     0.274840000000     0.034220000000     0.03735    
H328     H      0.274290000000     0.229270000000     0.955670000000     0.0429281  
H329     H      0.242200000000     0.160050000000     0.963830000000     0.0543938  
H330     H      0.334470000000     0.288790000000     0.944030000000     0.0394593  
H331     H      0.263990000000     0.204540000000     0.061010000000     0.0598654  
H332     H      0.445170000000     0.312960000000     0.992160000000     0.0570348  
H333     H      0.359460000000     0.349590000000     0.978870000000     0.0564104  
H334     H      0.329170000000     0.214530000000     0.045930000000     0.0417382  
H335     H      0.411020000000     0.415080000000     0.990310000000     0.0261506  
H336     H      0.201950000000     0.174220000000     0.127310000000     0.192564   
H337     H      0.682650000000     0.051050000000     0.028720000000     0.0278105  
H338     H      0.936470000000     0.991310000000     0.117740000000     0.0245511  
H339     H      0.732100000000     0.943520000000     0.084460000000     0.038695   
H340     H      0.853910000000     0.071170000000     0.092900000000     0.042451   
H341     H      0.871570000000     0.981540000000     0.128120000000     0.0523105  
H342     H      0.789830000000     0.067040000000     0.089890000000     0.0388731  
H343     H      0.874370000000     0.044340000000     0.039910000000     0.0615672  
H344     H      0.743440000000     0.052790000000     0.044310000000     0.0549699  
H345     H      0.680730000000     0.953630000000     0.107340000000     0.0539918  
H346     H      0.796810000000     0.947900000000     0.088540000000     0.0414969  
H347     H      0.619210000000     0.952350000000     0.090610000000     0.031926   
H348     H      0.944990000000     0.091230000000     0.982070000000     0.193093   
H349     H      0.380980000000     0.945130000000     0.009880000000     0.0332107  
H350     H      0.111230000000     0.989940000000     0.941600000000     0.0296471  
H351     H      0.282320000000     0.965770000000     0.021480000000     0.0400668  
H352     H      0.249690000000     0.028550000000     0.927330000000     0.0403313  
H353     H      0.164850000000     0.977730000000     0.933740000000     0.0529588  
H354     H      0.310020000000     0.024580000000     0.927540000000     0.0388309  
H355     H      0.224080000000     0.037310000000     0.022000000000     0.0508492  
H356     H      0.316900000000     0.938340000000     0.996190000000     0.0556327  
H357     H      0.374130000000     0.055110000000     0.959280000000     0.0549406  
H358     H      0.222570000000     0.969760000000     0.021030000000     0.0424138  
H359     H      0.437860000000     0.060860000000     0.973000000000     0.0247321  
H360     H      0.225720000000     0.097200000000     0.037810000000     0.165902   
H361     H      0.051030000000     0.923500000000     0.977330000000     0.0238306  
H362     H      0.073610000000     0.661410000000     0.075980000000     0.0378995  
H363     H      0.022530000000     0.806210000000     0.991870000000     0.0408578  
H364     H      0.127660000000     0.785650000000     0.044290000000     0.0411894  
H365     H      0.083050000000     0.724490000000     0.070940000000     0.0587915  
H366     H      0.134450000000     0.849220000000     0.045990000000     0.0384892  
H367     H      0.040480000000     0.704470000000     0.970380000000     0.0581493  
H368     H      0.063990000000     0.872130000000     0.970710000000     0.0567362  
H369     H      0.099100000000     0.877640000000     0.073270000000     0.0562424  
H370     H      0.015540000000     0.743050000000     0.990520000000     0.0420088  
H371     H      0.086920000000     0.930710000000     0.078880000000     0.0280371  
H372     H      0.017310000000     0.627310000000     0.919650000000     0.182648   
H373     H      0.944300000000     0.372590000000     0.069340000000     0.0239743  
H374     H      0.005820000000     0.120980000000     0.073420000000     0.0484414  
H375     H      0.958920000000     0.283970000000     0.018160000000     0.0366649  
H376     H      0.022210000000     0.227970000000     0.092250000000     0.0447348  
H377     H      0.977270000000     0.159920000000     0.081380000000     0.0574144  
H378     H      0.021080000000     0.284060000000     0.109090000000     0.0395991  
H379     H      0.012540000000     0.212350000000     0.986320000000     0.0596393  
H380     H      0.933310000000     0.308290000000     0.064100000000     0.052839   
H381     H      0.057450000000     0.351860000000     0.085280000000     0.0559315  
H382     H      0.959340000000     0.226660000000     0.001190000000     0.0423129  
H383     H      0.067660000000     0.415970000000     0.089570000000     0.0263191  
H384     H      0.042400000000     0.184340000000     0.920180000000     0.181691   
N1       N      0.536150000000     0.490950000000     0.942300000000    -0.185404   
N2       N      0.503300000000     0.500020000000     0.665080000000    -0.203802   
N3       N      0.518000000000     0.499100000000     0.441830000000    -0.186247   
N4       N      0.515520000000     0.489430000000     0.165820000000    -0.204641   
N5       N      0.509680000000     0.641390000000     0.525610000000    -0.187088   
N6       N      0.546270000000     0.939130000000     0.491670000000    -0.200346   
N7       N      0.553960000000     0.167020000000     0.549410000000    -0.187896   
N8       N      0.510220000000     0.415780000000     0.602000000000    -0.202413   
N9       N      0.514720000000     0.030150000000     0.920370000000    -0.195044   
N10      N      0.542430000000     0.024810000000     0.647480000000    -0.203935   
N11      N      0.561030000000     0.036410000000     0.420900000000    -0.188149   
N12      N      0.558900000000     0.037910000000     0.145210000000    -0.203569   
N13      N      0.518470000000     0.623290000000     0.029930000000    -0.186009   
N14      N      0.506280000000     0.896290000000     0.002500000000    -0.20767    
N15      N      0.509400000000     0.112240000000     0.078450000000    -0.189888   
N16      N      0.522380000000     0.399500000000     0.100920000000    -0.204984   
N17      N      0.929290000000     0.443310000000     0.472000000000    -0.189134   
N18      N      0.644180000000     0.163190000000     0.495560000000    -0.20284    
N19      N      0.133220000000     0.675350000000     0.559150000000    -0.192962   
N20      N      0.413010000000     0.954760000000     0.568470000000    -0.205798   
N21      N      0.651330000000     0.568100000000     0.533820000000    -0.186011   
N22      N      0.918820000000     0.537760000000     0.579260000000    -0.209184   
N23      N      0.152560000000     0.576850000000     0.532480000000    -0.180913   
N24      N      0.424160000000     0.558680000000     0.570220000000    -0.205271   
N25      N      0.038190000000     0.509880000000     0.646840000000    -0.192886   
N26      N      0.040180000000     0.504430000000     0.924710000000    -0.200729   
N27      N      0.037520000000     0.530430000000     0.424600000000    -0.186235   
N28      N      0.011440000000     0.493540000000     0.149160000000    -0.20297    
N29      N      0.942700000000     0.410800000000     0.982820000000    -0.190227   
N30      N      0.651520000000     0.130860000000     0.996970000000    -0.208736   
N31      N      0.172640000000     0.621060000000     0.070150000000    -0.184976   
N32      N      0.453570000000     0.888970000000     0.099450000000    -0.190809   
N33      N      0.954070000000     0.563920000000     0.056710000000    -0.18515    
N34      N      0.672840000000     0.562130000000     0.035400000000    -0.203004   
N35      N      0.172520000000     0.556520000000     0.021770000000    -0.188429   
N36      N      0.443590000000     0.546700000000     0.068720000000    -0.206577   
N37      N      0.642910000000     0.643520000000     0.570610000000    -0.18992    
N38      N      0.922820000000     0.924490000000     0.551110000000    -0.206637   
N39      N      0.430780000000     0.410430000000     0.499530000000    -0.18661    
N40      N      0.150160000000     0.133220000000     0.473190000000    -0.203612   
N41      N      0.634910000000     0.017110000000     0.578320000000    -0.192646   
N42      N      0.923770000000     0.058500000000     0.517310000000    -0.209218   
N43      N      0.153920000000     0.054200000000     0.565890000000    -0.189093   
N44      N      0.417830000000     0.035460000000     0.519340000000    -0.20872    
N45      N      0.994570000000     0.916290000000     0.498100000000    -0.188158   
N46      N      0.989850000000     0.637080000000     0.516500000000    -0.199592   
N47      N      0.013130000000     0.142790000000     0.560450000000    -0.185574   
N48      N      0.977910000000     0.401010000000     0.570920000000    -0.184676   
N49      N      0.033580000000     0.055220000000     0.914140000000    -0.186451   
N50      N      0.068850000000     0.068520000000     0.640990000000    -0.204816   
N51      N      0.087050000000     0.065310000000     0.140760000000    -0.187323   
N52      N      0.056990000000     0.047950000000     0.415740000000    -0.204363   
N53      N      0.919100000000     0.923100000000     0.036690000000    -0.194035   
N54      N      0.660360000000     0.633520000000     0.070030000000    -0.209982   
N55      N      0.177630000000     0.144550000000     0.020990000000    -0.16648    
N56      N      0.456540000000     0.400950000000     0.999240000000    -0.207945   
N57      N      0.943140000000     0.023430000000     0.072870000000    -0.185577   
N58      N      0.646220000000     0.001450000000     0.058390000000    -0.203695   
N59      N      0.136730000000     0.021270000000     0.985950000000    -0.184194   
N60      N      0.414220000000     0.003970000000     0.993660000000    -0.197791   
N61      N      0.052610000000     0.645570000000     0.025940000000    -0.191129   
N62      N      0.065900000000     0.929120000000     0.029050000000    -0.210674   
N63      N      0.027030000000     0.144600000000     0.025880000000    -0.166254   
N64      N      0.007130000000     0.399110000000     0.078100000000    -0.207714   
O1       O      0.066220000000     0.126160000000     0.053710000000    -0.354174   
O2       O      0.967910000000     0.969510000000     0.004990000000    -0.424037   
O3       O      0.068930000000     0.070660000000     0.962620000000    -0.391494   
O4       O      0.995580000000     0.013200000000     0.085840000000    -0.421521   
O5       O      0.008990000000     0.024680000000     0.963150000000    -0.42677    
O6       O      0.002520000000     0.056990000000     0.048840000000    -0.375279   
O7       O      0.983290000000     0.954920000000     0.053790000000    -0.476878   
O8       O      0.044430000000     0.103330000000     0.004800000000    -0.376567   
O9       O      0.062510000000     0.075700000000     0.091570000000    -0.37703    
O10      O      0.073100000000     0.009370000000     0.973650000000    -0.412696   
O11      O      0.118030000000     0.124180000000     0.995270000000    -0.362893   
O12      O      0.060320000000     0.973290000000     0.058070000000    -0.438848   
O13      O      0.027160000000     0.953280000000     0.011240000000    -0.474017   
O14      O      0.118710000000     0.105490000000     0.046060000000    -0.375322   
O15      O      0.076900000000     0.031380000000     0.094240000000    -0.437605   
O16      O      0.112160000000     0.056080000000     0.006720000000    -0.373336   
O17      O      0.042550000000     0.027860000000     0.028950000000    -0.57394    
O18      O      0.058510000000     0.021290000000     0.466040000000    -0.436376   
O19      O      0.012080000000     0.086300000000     0.576100000000    -0.428313   
O20      O      0.972530000000     0.052800000000     0.495010000000    -0.435945   
O21      O      0.091690000000     0.111550000000     0.497030000000    -0.432068   
O22      O      0.956310000000     0.032380000000     0.545100000000    -0.465808   
O23      O      0.115430000000     0.073500000000     0.497520000000    -0.431757   
O24      O      0.044210000000     0.117490000000     0.533640000000    -0.425734   
O25      O      0.022400000000     0.048160000000     0.458370000000    -0.441991   
O26      O      0.088140000000     0.028100000000     0.556570000000    -0.439003   
O27      O      0.980500000000     0.980060000000     0.563530000000    -0.439573   
O28      O      0.994660000000     0.971920000000     0.481140000000    -0.41611    
O29      O      0.075980000000     0.095960000000     0.589360000000    -0.424607   
O30      O      0.040180000000     0.034350000000     0.594830000000    -0.448018   
O31      O      0.031970000000     0.974150000000     0.523170000000    -0.442458   
O32      O      0.123270000000     0.089280000000     0.552730000000    -0.410538   
O33      O      0.948040000000     0.977900000000     0.517710000000    -0.443032   
O34      O      0.034450000000     0.044210000000     0.527100000000    -0.533233   
O35      O      0.005110000000     0.443070000000     0.006530000000    -0.447097   
O36      O      0.067710000000     0.605460000000     0.056210000000    -0.459066   
O37      O      0.972900000000     0.524100000000     0.037140000000    -0.45031    
O38      O      0.041940000000     0.536700000000     0.969660000000    -0.428694   
O39      O      0.004970000000     0.555640000000     0.080580000000    -0.410418   
O40      O      0.062390000000     0.495560000000     0.976050000000    -0.428935   
O41      O      0.045570000000     0.589680000000     0.006350000000    -0.426219   
O42      O      0.971120000000     0.471490000000     0.003280000000    -0.420696   
O43      O      0.109050000000     0.515130000000     0.036080000000    -0.449487   
O44      O      0.047820000000     0.516870000000     0.104150000000    -0.447151   
O45      O      0.986410000000     0.440760000000     0.061370000000    -0.451204   
O46      O      0.120160000000     0.603590000000     0.032810000000    -0.423533   
O47      O      0.109930000000     0.570020000000     0.077940000000    -0.423466   
O48      O      0.049230000000     0.462180000000     0.066300000000    -0.433961   
O49      O      0.117440000000     0.553690000000     0.995130000000    -0.421523   
O50      O      0.984990000000     0.491210000000     0.096430000000    -0.420716   
O51      O      0.043120000000     0.523560000000     0.037240000000    -0.532499   
O52      O      0.991460000000     0.465310000000     0.495480000000    -0.446161   
O53      O      0.020820000000     0.612810000000     0.550500000000    -0.448409   
O54      O      0.947530000000     0.505770000000     0.561310000000    -0.437557   
O55      O      0.022340000000     0.547580000000     0.471410000000    -0.441789   
O56      O      0.983820000000     0.556920000000     0.590230000000    -0.467705   
O57      O      0.058860000000     0.522640000000     0.476740000000    -0.402603   
O58      O      0.008960000000     0.595900000000     0.498840000000    -0.417317   
O59      O      0.960360000000     0.491980000000     0.508500000000    -0.417305   
O60      O      0.087920000000     0.531970000000     0.540170000000    -0.41956    
O61      O      0.051970000000     0.555250000000     0.606750000000    -0.465409   
O62      O      0.954960000000     0.443010000000     0.557220000000    -0.39982    
O63      O      0.083900000000     0.633270000000     0.523800000000    -0.448822   
O64      O      0.091480000000     0.611410000000     0.570270000000    -0.460538   
O65      O      0.019650000000     0.464970000000     0.557980000000    -0.434568   
O66      O      0.100150000000     0.581160000000     0.506650000000    -0.39431    
O67      O      0.004320000000     0.497960000000     0.596700000000    -0.421065   
O68      O      0.026200000000     0.545730000000     0.538220000000    -0.5814     
O69      O      0.450820000000     0.984040000000     0.025450000000    -0.414416   
O70      O      0.549030000000     0.960990000000     0.999360000000    -0.46191    
O71      O      0.538100000000     0.062120000000     0.969040000000    -0.448791   
O72      O      0.517110000000     0.938650000000     0.093160000000    -0.406412   
O73      O      0.531290000000     0.005660000000     0.965360000000    -0.465324   
O74      O      0.468040000000     0.947590000000     0.076870000000    -0.439095   
O75      O      0.499990000000     0.940710000000     0.030020000000    -0.421588   
O76      O      0.480610000000     0.043310000000     0.006300000000    -0.428311   
O77      O      0.511290000000     0.018260000000     0.104190000000    -0.444908   
O78      O      0.603310000000     0.069070000000     0.984550000000    -0.449834   
O79      O      0.540560000000     0.083180000000     0.058960000000    -0.455191   
O80      O      0.578730000000     0.975810000000     0.058870000000    -0.401047   
O81      O      0.612620000000     0.024230000000     0.026420000000    -0.468091   
O82      O      0.479280000000     0.048160000000     0.064430000000    -0.392697   
O83      O      0.562420000000     0.014000000000     0.096700000000    -0.431038   
O84      O      0.593270000000     0.097910000000     0.022300000000    -0.457341   
O85      O      0.537080000000     0.019930000000     0.033150000000    -0.551635   
O86      O      0.478940000000     0.066600000000     0.543850000000    -0.464031   
O87      O      0.581400000000     0.002050000000     0.508530000000    -0.411741   
O88      O      0.526030000000     0.036550000000     0.463560000000    -0.434761   
O89      O      0.468650000000     0.978010000000     0.540500000000    -0.454515   
O90      O      0.588760000000     0.058190000000     0.472210000000    -0.429729   
O91      O      0.470750000000     0.011490000000     0.581020000000    -0.42785    
O92      O      0.517810000000     0.972330000000     0.507630000000    -0.436597   
O93      O      0.472550000000     0.040900000000     0.496610000000    -0.431442   
O94      O      0.553430000000     0.057740000000     0.599090000000    -0.437606   
O95      O      0.614550000000     0.107530000000     0.525820000000    -0.431136   
O96      O      0.531370000000     0.116190000000     0.514640000000    -0.429957   
O97      O      0.569140000000     0.990560000000     0.564340000000    -0.436653   
O98      O      0.605960000000     0.051820000000     0.564100000000    -0.427498   
O99      O      0.557980000000     0.112940000000     0.561770000000    -0.421654   
O100     O      0.519430000000     0.995710000000     0.597560000000    -0.434157   
O101     O      0.582480000000     0.112320000000     0.482300000000    -0.431402   
O102     O      0.539460000000     0.044180000000     0.532070000000    -0.53072    
O103     O      0.515200000000     0.439090000000     0.026060000000    -0.454075   
O104     O      0.548250000000     0.597830000000     0.064320000000    -0.43891    
O105     O      0.465240000000     0.507110000000     0.054210000000    -0.458395   
O106     O      0.532960000000     0.521090000000     0.986650000000    -0.448828   
O107     O      0.494650000000     0.543040000000     0.096340000000    -0.434946   
O108     O      0.567580000000     0.493400000000     0.993320000000    -0.408157   
O109     O      0.525040000000     0.571490000000     0.017030000000    -0.413607   
O110     O      0.472280000000     0.457920000000     0.021860000000    -0.439311   
O111     O      0.612070000000     0.521030000000     0.054050000000    -0.45999    
O112     O      0.550700000000     0.522310000000     0.121630000000    -0.445719   
O113     O      0.494620000000     0.434370000000     0.080460000000    -0.45146    
O114     O      0.602900000000     0.601570000000     0.040230000000    -0.466365   
O115     O      0.605580000000     0.580080000000     0.089570000000    -0.438707   
O116     O      0.558270000000     0.463170000000     0.085800000000    -0.42795    
O117     O      0.614750000000     0.555620000000     0.010930000000    -0.418182   
O118     O      0.487880000000     0.482540000000     0.113350000000    -0.432561   
O119     O      0.540660000000     0.518210000000     0.053870000000    -0.53296    
O120     O      0.491130000000     0.447550000000     0.526950000000    -0.420038   
O121     O      0.529810000000     0.609010000000     0.562080000000    -0.448435   
O122     O      0.444200000000     0.517720000000     0.555720000000    -0.448972   
O123     O      0.513250000000     0.531770000000     0.483770000000    -0.436734   
O124     O      0.476670000000     0.555810000000     0.595920000000    -0.439322   
O125     O      0.544730000000     0.501240000000     0.494340000000    -0.419802   
O126     O      0.508540000000     0.585250000000     0.513710000000    -0.415546   
O127     O      0.449310000000     0.467330000000     0.524180000000    -0.434553   
O128     O      0.590090000000     0.531810000000     0.553320000000    -0.453569   
O129     O      0.532710000000     0.534850000000     0.619650000000    -0.449096   
O130     O      0.474510000000     0.444000000000     0.582560000000    -0.427926   
O131     O      0.586070000000     0.613400000000     0.538210000000    -0.442344   
O132     O      0.585830000000     0.589660000000     0.586720000000    -0.431535   
O133     O      0.537640000000     0.478470000000     0.586160000000    -0.440801   
O134     O      0.594260000000     0.563870000000     0.508620000000    -0.401708   
O135     O      0.469660000000     0.495080000000     0.615220000000    -0.426351   
O136     O      0.519600000000     0.529190000000     0.552360000000    -0.527398   
O137     O      0.604900000000     0.458510000000     0.931610000000    -0.334915   
O138     O      0.556510000000     0.430870000000     0.966420000000    -0.236529   
O139     O      0.603270000000     0.491980000000     0.436420000000    -0.327114   
O140     O      0.554910000000     0.449910000000     0.467470000000    -0.224903   
O141     O      0.487680000000     0.625330000000     0.438200000000    -0.335252   
O142     O      0.450910000000     0.585520000000     0.477440000000    -0.219768   
O143     O      0.593600000000     0.171990000000     0.633350000000    -0.337282   
O144     O      0.622260000000     0.171240000000     0.588530000000    -0.213585   
O145     O      0.467490000000     0.925610000000     0.910250000000    -0.334749   
O146     O      0.454620000000     0.956330000000     0.946720000000    -0.222915   
O147     O      0.666710000000     0.074950000000     0.422390000000    -0.336114   
O148     O      0.625330000000     0.023240000000     0.451040000000    -0.234988   
O149     O      0.447360000000     0.572200000000     0.967150000000    -0.335891   
O150     O      0.511040000000     0.595550000000     0.959030000000    -0.235247   
O151     O      0.408370000000     0.068590000000     0.103930000000    -0.33496    
O152     O      0.450960000000     0.049700000000     0.120650000000    -0.232093   
O153     O      0.862990000000     0.481060000000     0.483160000000    -0.333948   
O154     O      0.922220000000     0.511510000000     0.462110000000    -0.20318    
O155     O      0.133800000000     0.722320000000     0.482540000000    -0.325043   
O156     O      0.082720000000     0.698530000000     0.514660000000    -0.22769    
O157     O      0.668280000000     0.582710000000     0.448360000000    -0.329246   
O158     O      0.651760000000     0.618490000000     0.475550000000    -0.233126   
O159     O      0.155240000000     0.615540000000     0.462920000000    -0.31899    
O160     O      0.187560000000     0.665870000000     0.495630000000    -0.229166   
O161     O      0.120520000000     0.558580000000     0.623730000000    -0.315055   
O162     O      0.130130000000     0.593480000000     0.667360000000    -0.242834   
O163     O      0.997140000000     0.592910000000     0.401950000000    -0.329368   
O164     O      0.052650000000     0.609530000000     0.431770000000    -0.258026   
O165     O      0.874780000000     0.446730000000     0.961450000000    -0.336023   
O166     O      0.935690000000     0.470540000000     0.944820000000    -0.216492   
O167     O      0.173580000000     0.567860000000     0.142560000000    -0.334743   
O168     O      0.137420000000     0.596190000000     0.137390000000    -0.241406   
O169     O      0.977920000000     0.571230000000     0.131230000000    -0.320756   
O170     O      0.003600000000     0.632830000000     0.116380000000    -0.241681   
O171     O      0.193940000000     0.582530000000     0.940330000000    -0.333727   
O172     O      0.175950000000     0.616770000000     0.968120000000    -0.239207   
O173     O      0.647630000000     0.636550000000     0.658110000000    -0.335994   
O174     O      0.640090000000     0.589340000000     0.627090000000    -0.219376   
O175     O      0.491330000000     0.373240000000     0.477330000000    -0.326632   
O176     O      0.486080000000     0.381550000000     0.529650000000    -0.230321   
O177     O      0.704110000000     0.115090000000     0.608140000000    -0.335954   
O178     O      0.645330000000     0.071820000000     0.626040000000    -0.221206   
O179     O      0.229790000000     0.152370000000     0.543820000000    -0.339708   
O180     O      0.190280000000     0.134650000000     0.585550000000    -0.227953   
O181     O      0.941030000000     0.897350000000     0.419220000000    -0.335165   
O182     O      0.003720000000     0.943090000000     0.427940000000    -0.225943   
O183     O      0.091340000000     0.192950000000     0.524040000000    -0.329729   
O184     O      0.046730000000     0.189890000000     0.485920000000    -0.232675   
O185     O      0.003460000000     0.968870000000     0.924530000000    -0.354648   
O186     O      0.950580000000     0.965470000000     0.897810000000    -0.23441    
O187     O      0.122010000000     0.164480000000     0.137280000000    -0.325003   
O188     O      0.057680000000     0.124640000000     0.127640000000    -0.214963   
O189     O      0.875160000000     0.917340000000     0.956620000000    -0.328972   
O190     O      0.926890000000     0.909130000000     0.965700000000    -0.238604   
O191     O      0.210000000000     0.170790000000     0.106520000000    -0.326047   
O192     O      0.160650000000     0.172880000000     0.078600000000    -0.206375   
O193     O      0.936740000000     0.081710000000     0.003980000000    -0.330295   
O194     O      0.948640000000     0.033740000000     0.000300000000    -0.197502   
O195     O      0.202970000000     0.083320000000     0.051040000000    -0.306639   
O196     O      0.142320000000     0.035000000000     0.058240000000    -0.188315   
O197     O      0.031020000000     0.643490000000     0.938250000000    -0.333478   
O198     O      0.991410000000     0.599390000000     0.973840000000    -0.213447   
O199     O      0.030510000000     0.180960000000     0.940940000000    -0.332572   
O200     O      0.073870000000     0.168480000000     0.967700000000    -0.211629   


