data_structure

_audit_creation_method RASPA-1.0
_audit_creation_date 2023-6-4
_audit_author_name 'Poobodin Mano'

_cell_length_a    31.2031
_cell_length_b    31.6104
_cell_length_c    32.065
_cell_angle_alpha 87.1384
_cell_angle_beta  93.8159
_cell_angle_gamma 120.434
_cell_volume      27204

_symmetry_cell_setting          triclinic
_symmetry_space_group_name_Hall 'P 1'
_symmetry_space_group_name_H-M  'P 1'
_symmetry_Int_Tables_number     1

_symmetry_equiv_pos_as_xyz 'x,y,z'

loop_
_atom_site_label
_atom_site_type_symbol
_atom_site_fract_x
_atom_site_fract_y
_atom_site_fract_z
_atom_site_charge
C1       C      0.063340000000     0.177080000000     0.047070000000     0.46581    
C2       C      0.932320000000     0.998790000000     0.036290000000     0.500668   
C3       C      0.084650000000     0.101230000000     0.976570000000     0.468253   
C4       C      0.973540000000     0.112310000000     0.148680000000     0.436184   
C5       C      0.044530000000     0.053040000000     0.180370000000     0.493425   
C6       C      0.138170000000     0.049840000000     0.053990000000     0.512246   
C7       C      0.141620000000     0.177290000000     0.128590000000     0.43574    
C8       C      0.998190000000     0.946860000000     0.080460000000     0.490025   
C9       C      0.059150000000     0.016570000000     0.481100000000     0.46858    
C10      C      0.044400000000     0.113850000000     0.624240000000     0.470802   
C11      C      0.952670000000     0.032510000000     0.584290000000     0.466505   
C12      C      0.154900000000     0.103920000000     0.523870000000     0.46564    
C13      C      0.175840000000     0.052950000000     0.617230000000     0.466071   
C14      C      0.951240000000     0.919810000000     0.612490000000     0.465463   
C15      C      0.027150000000     0.915420000000     0.551950000000     0.452453   
C16      C      0.105890000000     0.058160000000     0.683840000000     0.471815   
C17      C      0.969300000000     0.452550000000     0.993700000000     0.386717   
C18      C      0.007480000000     0.667080000000     0.017500000000     0.492025   
C19      C      0.942820000000     0.546080000000     0.046500000000     0.447367   
C20      C      0.056810000000     0.581010000000     0.919840000000     0.464628   
C21      C      0.159540000000     0.630260000000     0.000280000000     0.456466   
C22      C      0.032540000000     0.537600000000     0.119290000000     0.454167   
C23      C      0.088920000000     0.491910000000     0.024940000000     0.401672   
C24      C      0.134410000000     0.704450000000     0.053390000000     0.488654   
C25      C      0.939650000000     0.394880000000     0.482580000000     0.489615   
C26      C      0.081810000000     0.641500000000     0.519400000000     0.41096    
C27      C      0.957380000000     0.528890000000     0.522290000000     0.510283   
C28      C      0.031650000000     0.494280000000     0.420650000000     0.462217   
C29      C      0.140660000000     0.506130000000     0.476330000000     0.481153   
C30      C      0.017250000000     0.511850000000     0.620340000000     0.503423   
C31      C      0.016260000000     0.391490000000     0.571570000000     0.508804   
C32      C      0.153930000000     0.586590000000     0.554380000000     0.461706   
C33      C      0.458450000000     0.104050000000     0.055220000000     0.510765   
C34      C      0.597110000000     0.995150000000     0.032630000000     0.381166   
C35      C      0.534440000000     0.063850000000     0.967380000000     0.496703   
C36      C      0.462760000000     0.005310000000     0.080810000000     0.439791   
C37      C      0.557530000000     0.049480000000     0.161000000000     0.42085    
C38      C      0.647170000000     0.175530000000     0.991290000000     0.459002   
C39      C      0.572600000000     0.207150000000     0.097050000000     0.475488   
C40      C      0.666310000000     0.104160000000     0.095770000000     0.452507   
C41      C      0.466080000000     0.044470000000     0.528880000000     0.430389   
C42      C      0.594360000000     0.937440000000     0.539080000000     0.47274    
C43      C      0.523130000000     0.993140000000     0.460600000000     0.459908   
C44      C      0.445110000000     0.893430000000     0.595650000000     0.4946     
C45      C      0.517710000000     0.986920000000     0.671530000000     0.504317   
C46      C      0.633170000000     0.105050000000     0.474030000000     0.392849   
C47      C      0.558900000000     0.101980000000     0.600610000000     0.450093   
C48      C      0.655750000000     0.048120000000     0.591830000000     0.491704   
C49      C      0.450510000000     0.446130000000     0.022040000000     0.44778    
C50      C      0.557490000000     0.684230000000     0.003530000000     0.496245   
C51      C      0.445270000000     0.594110000000     0.055160000000     0.453063   
C52      C      0.510290000000     0.525840000000     0.941410000000     0.524888   
C53      C      0.620860000000     0.532570000000     0.000320000000     0.376567   
C54      C      0.508320000000     0.563060000000     0.144410000000     0.484947   
C55      C      0.541040000000     0.491580000000     0.104850000000     0.454498   
C56      C      0.646970000000     0.668250000000     0.050110000000     0.535318   
C57      C      0.464120000000     0.403340000000     0.499090000000     0.470148   
C58      C      0.605020000000     0.646520000000     0.493980000000     0.431283   
C59      C      0.454020000000     0.521020000000     0.549950000000     0.503707   
C60      C      0.539990000000     0.510370000000     0.442810000000     0.467603   
C61      C      0.662010000000     0.540550000000     0.490780000000     0.470028   
C62      C      0.518940000000     0.503590000000     0.643610000000     0.497946   
C63      C      0.550490000000     0.404470000000     0.580200000000     0.47305    
C64      C      0.658660000000     0.610900000000     0.581350000000     0.464642   
C65      C      0.470250000000     0.527710000000     0.875600000000     0.180614   
C66      C      0.502350000000     0.473850000000     0.887470000000     0.0875589  
C67      C      0.468430000000     0.521710000000     0.832400000000    -0.113364   
C68      C      0.510500000000     0.539680000000     0.747970000000    -0.0845735  
C69      C      0.501040000000     0.467430000000     0.844560000000    -0.0922165  
C70      C      0.494360000000     0.495670000000     0.770910000000     0.0348344  
C71      C      0.486870000000     0.493960000000     0.816420000000     0.0541881  
C72      C      0.518910000000     0.541760000000     0.705590000000     0.0794503  
C73      C      0.497000000000     0.458100000000     0.707870000000     0.0777683  
C74      C      0.487780000000     0.454600000000     0.750310000000    -0.0836221  
C75      C      0.550630000000     0.560790000000     0.209530000000     0.176988   
C76      C      0.463400000000     0.530600000000     0.206000000000     0.0897942  
C77      C      0.548250000000     0.545890000000     0.251480000000    -0.110833   
C78      C      0.491590000000     0.537450000000     0.344470000000    -0.0825597  
C79      C      0.460600000000     0.517170000000     0.248390000000    -0.0907692  
C80      C      0.502780000000     0.512510000000     0.316340000000     0.0361963  
C81      C      0.503280000000     0.524270000000     0.271230000000     0.0576636  
C82      C      0.501940000000     0.534360000000     0.387180000000     0.0818971  
C83      C      0.529220000000     0.478550000000     0.374810000000     0.0827563  
C84      C      0.520290000000     0.481620000000     0.331840000000    -0.0808367  
C85      C      0.634100000000     0.909470000000     0.493130000000     0.170371   
C86      C      0.586010000000     0.859830000000     0.549300000000     0.0850234  
C87      C      0.638340000000     0.869820000000     0.479770000000    -0.108913   
C88      C      0.651750000000     0.776670000000     0.474200000000    -0.0794477  
C89      C      0.590550000000     0.821040000000     0.537350000000    -0.0958282  
C90      C      0.610340000000     0.778960000000     0.485760000000     0.03401    
C91      C      0.614200000000     0.824440000000     0.500920000000     0.0535115  
C92      C      0.648130000000     0.730580000000     0.471970000000     0.0776722  
C93      C      0.563590000000     0.690750000000     0.489650000000     0.0778606  
C94      C      0.564930000000     0.735130000000     0.489530000000    -0.0854155  
C95      C      0.534030000000     0.150260000000     0.637390000000     0.168117   
C96      C      0.604550000000     0.188980000000     0.595720000000     0.0845677  
C97      C      0.533460000000     0.194440000000     0.638280000000    -0.109336   
C98      C      0.516960000000     0.278430000000     0.610840000000    -0.0815437  
C99      C      0.604830000000     0.233290000000     0.596200000000    -0.0860267  
C100     C      0.563580000000     0.281420000000     0.612320000000     0.0338829  
C101     C      0.567700000000     0.236110000000     0.616140000000     0.0506334  
C102     C      0.513370000000     0.320530000000     0.602570000000     0.0754325  
C103     C      0.600820000000     0.368970000000     0.598300000000     0.0739319  
C104     C      0.605850000000     0.327950000000     0.607370000000    -0.0821695  
C105     C      0.501240000000     0.061290000000     0.896810000000     0.171189   
C106     C      0.534320000000     0.010030000000     0.918080000000     0.086115   
C107     C      0.498370000000     0.048230000000     0.855030000000    -0.109953   
C108     C      0.473150000000     0.995090000000     0.772360000000    -0.0801336  
C109     C      0.531650000000     0.996400000000     0.876660000000    -0.0902526  
C110     C      0.513940000000     0.004890000000     0.799700000000     0.0361275  
C111     C      0.514490000000     0.016350000000     0.844400000000     0.0523079  
C112     C      0.474620000000     0.988050000000     0.729870000000     0.0876745  
C113     C      0.555620000000     0.999450000000     0.740560000000     0.07983    
C114     C      0.555160000000     0.006140000000     0.783390000000    -0.0822216  
C115     C      0.489040000000     0.006160000000     0.395300000000     0.177517   
C116     C      0.526290000000     0.956630000000     0.398490000000     0.0848752  
C117     C      0.494250000000     0.012130000000     0.351860000000    -0.109355   
C118     C      0.553170000000     0.055080000000     0.274410000000    -0.0817965  
C119     C      0.530920000000     0.961110000000     0.354910000000    -0.0866301  
C120     C      0.530720000000     0.005630000000     0.286870000000     0.0326887  
C121     C      0.517660000000     0.991710000000     0.331480000000     0.0526708  
C122     C      0.563450000000     0.068870000000     0.232600000000     0.0699494  
C123     C      0.530950000000     0.986100000000     0.214300000000     0.0710374  
C124     C      0.520690000000     0.970970000000     0.256390000000    -0.0793744  
C125     C      0.551680000000     0.910880000000     0.012840000000     0.167738   
C126     C      0.636930000000     0.960940000000     0.997280000000     0.075581   
C127     C      0.550820000000     0.869940000000     0.997400000000    -0.111644   
C128     C      0.622690000000     0.817150000000     0.006520000000    -0.085725   
C129     C      0.637170000000     0.920020000000     0.982420000000    -0.0909352  
C130     C      0.594300000000     0.827960000000     0.977430000000     0.0350289  
C131     C      0.593750000000     0.873830000000     0.982960000000     0.0492242  
C132     C      0.610810000000     0.768800000000     0.013140000000     0.0841202  
C133     C      0.549190000000     0.742080000000     0.957650000000     0.0795102  
C134     C      0.558380000000     0.790320000000     0.951560000000    -0.0822923  
C135     C      0.517200000000     0.414210000000     0.142020000000     0.165718   
C136     C      0.599230000000     0.465110000000     0.119490000000     0.0906049  
C137     C      0.525400000000     0.373930000000     0.145510000000    -0.106983   
C138     C      0.568800000000     0.300800000000     0.157990000000    -0.0829035  
C139     C      0.608350000000     0.426210000000     0.122980000000    -0.0886051  
C140     C      0.575870000000     0.336070000000     0.126660000000     0.0345739  
C141     C      0.570340000000     0.379310000000     0.133600000000     0.0504603  
C142     C      0.571780000000     0.259280000000     0.148610000000     0.0763752  
C143     C      0.588180000000     0.287100000000     0.078340000000     0.0781192  
C144     C      0.587090000000     0.329360000000     0.086900000000    -0.0850859  
C145     C      0.668980000000     0.182880000000     0.437610000000     0.172191   
C146     C      0.712290000000     0.139130000000     0.446130000000     0.0872368  
C147     C      0.713590000000     0.226000000000     0.428490000000    -0.107532   
C148     C      0.808590000000     0.316290000000     0.451380000000    -0.081906   
C149     C      0.757260000000     0.181610000000     0.438160000000    -0.08082    
C150     C      0.807610000000     0.274410000000     0.437240000000     0.0384699  
C151     C      0.759160000000     0.226870000000     0.432700000000     0.0539799  
C152     C      0.853480000000     0.357370000000     0.463630000000     0.0791145  
C153     C      0.897840000000     0.318360000000     0.447430000000     0.0824859  
C154     C      0.853630000000     0.277180000000     0.433360000000    -0.0798525  
C155     C      0.358290000000     0.831980000000     0.582890000000     0.170966   
C156     C      0.415100000000     0.809940000000     0.615700000000     0.0818564  
C157     C      0.319600000000     0.783370000000     0.587030000000    -0.112768   
C158     C      0.286190000000     0.672750000000     0.562390000000    -0.0843118  
C159     C      0.377220000000     0.760780000000     0.618610000000    -0.0951459  
C160     C      0.289730000000     0.695560000000     0.599600000000     0.0330073  
C161     C      0.328980000000     0.747360000000     0.604270000000     0.0527015  
C162     C      0.241050000000     0.632400000000     0.549630000000     0.0799426  
C163     C      0.205370000000     0.631540000000     0.612900000000     0.0794489  
C164     C      0.249780000000     0.673400000000     0.626120000000    -0.0817658  
C165     C      0.735290000000     0.572260000000     0.450670000000     0.16898    
C166     C      0.737720000000     0.557970000000     0.524180000000     0.0844158  
C167     C      0.782040000000     0.575820000000     0.448550000000    -0.110382   
C168     C      0.894140000000     0.592500000000     0.476720000000    -0.0856439  
C169     C      0.784730000000     0.564390000000     0.523290000000    -0.0976112  
C170     C      0.844900000000     0.557160000000     0.484280000000     0.0360237  
C171     C      0.805470000000     0.569400000000     0.485020000000     0.0514517  
C172     C      0.931840000000     0.581620000000     0.487450000000     0.0803533  
C173     C      0.872140000000     0.501840000000     0.511030000000     0.0835048  
C174     C      0.833890000000     0.510720000000     0.499440000000    -0.0887193  
C175     C      0.184250000000     0.462630000000     0.480240000000     0.173422   
C176     C      0.225590000000     0.547210000000     0.460680000000     0.0844852  
C177     C      0.230060000000     0.465020000000     0.487590000000    -0.110684   
C178     C      0.322000000000     0.481390000000     0.534240000000    -0.0851113  
C179     C      0.272020000000     0.551070000000     0.469700000000    -0.0919718  
C180     C      0.322380000000     0.513830000000     0.502380000000     0.034294   
C181     C      0.274600000000     0.510090000000     0.485670000000     0.0516628  
C182     C      0.366170000000     0.484110000000     0.549460000000     0.0783679  
C183     C      0.412460000000     0.552640000000     0.504980000000     0.0766536  
C184     C      0.368660000000     0.549920000000     0.487930000000    -0.0849634  
C185     C      0.015160000000     0.483420000000     0.691870000000     0.17304    
C186     C      0.031000000000     0.564340000000     0.675990000000     0.0850214  
C187     C      0.017080000000     0.491970000000     0.734560000000    -0.112953   
C188     C      0.060890000000     0.532920000000     0.819920000000    -0.078726   
C189     C      0.034000000000     0.573910000000     0.718330000000    -0.0940973  
C190     C      0.033710000000     0.548170000000     0.793290000000     0.0344697  
C191     C      0.027200000000     0.537590000000     0.748130000000     0.054693   
C192     C      0.068020000000     0.544090000000     0.862150000000     0.0834276  
C193     C      0.021800000000     0.584960000000     0.852540000000     0.0784188  
C194     C      0.014010000000     0.574440000000     0.810000000000    -0.0804881  
C195     C      0.020620000000     0.454530000000     0.354800000000     0.170858   
C196     C      0.008270000000     0.522580000000     0.358670000000     0.0812309  
C197     C      0.017670000000     0.457580000000     0.311030000000    -0.111999   
C198     C      0.986320000000     0.468820000000     0.217110000000    -0.0819053  
C199     C      0.005490000000     0.526390000000     0.315350000000    -0.0941374  
C200     C      0.017980000000     0.504100000000     0.246150000000     0.033022   
C201     C      0.012000000000     0.494800000000     0.291310000000     0.0533818  
C202     C      0.992190000000     0.480170000000     0.174440000000     0.076939   
C203     C      0.061700000000     0.558930000000     0.189430000000     0.0745121  
C204     C      0.056290000000     0.549200000000     0.232060000000    -0.081424   
C205     C      0.919790000000     0.365880000000     0.990540000000     0.171204   
C206     C      0.899720000000     0.416130000000     0.945540000000     0.0807586  
C207     C      0.873010000000     0.325030000000     0.981490000000    -0.109507   
C208     C      0.747550000000     0.298480000000     0.963710000000    -0.0826127  
C209     C      0.852220000000     0.375780000000     0.936350000000    -0.0899703  
C210     C      0.785190000000     0.289130000000     0.954790000000     0.0339413  
C211     C      0.837840000000     0.330000000000     0.955810000000     0.0509547  
C212     C      0.700790000000     0.259660000000     0.973780000000     0.0775867  
C213     C      0.725700000000     0.201910000000     0.962310000000     0.076787   
C214     C      0.773240000000     0.240040000000     0.952530000000    -0.0821178  
C215     C      0.205930000000     0.755620000000     0.100020000000     0.166594   
C216     C      0.195170000000     0.784440000000     0.032520000000     0.0846096  
C217     C      0.252870000000     0.798780000000     0.105200000000    -0.107837   
C218     C      0.351790000000     0.894470000000     0.041940000000    -0.0780212  
C219     C      0.240900000000     0.827330000000     0.037170000000    -0.0925509  
C220     C      0.321470000000     0.879250000000     0.076260000000     0.0346873  
C221     C      0.271020000000     0.834660000000     0.073270000000     0.0519819  
C222     C      0.398360000000     0.937090000000     0.043880000000     0.0831588  
C223     C      0.386080000000     0.950880000000     0.112870000000     0.0755449  
C224     C      0.339110000000     0.908020000000     0.112100000000    -0.0818988  
C225     C      0.709130000000     0.578550000000     0.016930000000     0.171396   
C226     C      0.671390000000     0.498930000000     0.988410000000     0.0789742  
C227     C      0.755390000000     0.580860000000     0.019450000000    -0.106908   
C228     C      0.835850000000     0.562760000000     0.056580000000    -0.0825992  
C229     C      0.716500000000     0.499250000000     0.993250000000    -0.0896091  
C230     C      0.806350000000     0.539790000000     0.020480000000     0.0349695  
C231     C      0.759150000000     0.540260000000     0.009850000000     0.0503562  
C232     C      0.880740000000     0.563520000000     0.065520000000     0.0764713  
C233     C      0.867260000000     0.517400000000     0.005110000000     0.0783478  
C234     C      0.822400000000     0.516290000000     0.995050000000    -0.0807993  
C235     C      0.241080000000     0.662200000000     0.973150000000     0.17532    
C236     C      0.226980000000     0.642680000000     0.045290000000     0.0873779  
C237     C      0.286520000000     0.662260000000     0.978880000000    -0.103264   
C238     C      0.341170000000     0.603020000000     0.003810000000    -0.0776197  
C239     C      0.272750000000     0.645120000000     0.052140000000    -0.0849861  
C240     C      0.343780000000     0.642280000000     0.024360000000     0.036104   
C241     C      0.301880000000     0.652250000000     0.018470000000     0.0541211  
C242     C      0.375540000000     0.587790000000     0.014480000000     0.0784755  
C243     C      0.417630000000     0.651500000000     0.063450000000     0.0752066  
C244     C      0.382770000000     0.666830000000     0.054370000000    -0.0817949  
C245     C      0.864450000000     0.859980000000     0.608340000000     0.176028   
C246     C      0.921880000000     0.839920000000     0.642970000000     0.0838508  
C247     C      0.826600000000     0.810920000000     0.610900000000    -0.109342   
C248     C      0.792310000000     0.698590000000     0.588740000000    -0.0815016  
C249     C      0.884350000000     0.790140000000     0.645530000000    -0.0875132  
C250     C      0.796390000000     0.723400000000     0.624950000000     0.032896   
C251     C      0.836380000000     0.775420000000     0.628610000000     0.0536957  
C252     C      0.746600000000     0.658220000000     0.576310000000     0.074376   
C253     C      0.710350000000     0.662470000000     0.637360000000     0.0735226  
C254     C      0.755430000000     0.703850000000     0.650290000000    -0.0823239  
C255     C      0.192800000000     0.180100000000     0.484380000000     0.167664   
C256     C      0.237950000000     0.139560000000     0.503600000000     0.0840542  
C257     C      0.237000000000     0.221810000000     0.472150000000    -0.10995    
C258     C      0.331740000000     0.316160000000     0.483640000000    -0.0829297  
C259     C      0.282650000000     0.181340000000     0.493200000000    -0.0878684  
C260     C      0.330960000000     0.272410000000     0.476240000000     0.0349477  
C261     C      0.283120000000     0.224250000000     0.479100000000     0.0520687  
C262     C      0.376640000000     0.360070000000     0.487680000000     0.0743669  
C263     C      0.421610000000     0.320400000000     0.475460000000     0.0746813  
C264     C      0.376840000000     0.275490000000     0.470380000000    -0.081425   
C265     C      0.742860000000     0.105660000000     0.579480000000     0.171658   
C266     C      0.719050000000     0.038410000000     0.627030000000     0.0871209  
C267     C      0.789860000000     0.109470000000     0.576670000000    -0.108046   
C268     C      0.865440000000     0.076500000000     0.555330000000    -0.078932   
C269     C      0.765400000000     0.042510000000     0.626060000000    -0.0927496  
C270     C      0.847540000000     0.075620000000     0.594640000000     0.0354584  
C271     C      0.800660000000     0.076450000000     0.599020000000     0.0538131  
C272     C      0.902820000000     0.064480000000     0.552110000000     0.0798145  
C273     C      0.906640000000     0.053820000000     0.625620000000     0.0864177  
C274     C      0.870730000000     0.066730000000     0.630010000000    -0.0821112  
C275     C      0.265660000000     0.097530000000     0.617570000000     0.168186   
C276     C      0.219260000000     0.011230000000     0.608730000000     0.0822508  
C277     C      0.308790000000     0.098570000000     0.605270000000    -0.110171   
C278     C      0.389980000000     0.096420000000     0.557930000000    -0.0770349  
C279     C      0.260820000000     0.011520000000     0.595500000000    -0.0951019  
C280     C      0.350880000000     0.055350000000     0.577720000000     0.0350911  
C281     C      0.306530000000     0.055500000000     0.592930000000     0.0538244  
C282     C      0.429080000000     0.092950000000     0.541990000000     0.0826817  
C283     C      0.390650000000     0.009400000000     0.563270000000     0.068729   
C284     C      0.353250000000     0.012290000000     0.581400000000    -0.0749341  
C285     C      0.997710000000     0.839840000000     0.514140000000     0.16629    
C286     C      0.075530000000     0.877790000000     0.552720000000     0.0834712  
C287     C      0.006290000000     0.801910000000     0.503250000000    -0.109714   
C288     C      0.067390000000     0.741250000000     0.553950000000    -0.0837527  
C289     C      0.084900000000     0.841590000000     0.542000000000    -0.0976309  
C290     C      0.055910000000     0.758810000000     0.516580000000     0.0322069  
C291     C      0.049560000000     0.802080000000     0.518480000000     0.0519262  
C292     C      0.077670000000     0.703530000000     0.553640000000     0.076278   
C293     C      0.064910000000     0.698540000000     0.479890000000     0.0710336  
C294     C      0.054390000000     0.736990000000     0.479070000000    -0.0816677  
C295     C      0.016590000000     0.157370000000     0.664870000000     0.16539    
C296     C      0.024280000000     0.169630000000     0.591210000000     0.0840716  
C297     C      0.006470000000     0.195870000000     0.666280000000    -0.111032   
C298     C      0.966830000000     0.272390000000     0.624630000000    -0.083607   
C299     C      0.013600000000     0.206920000000     0.591760000000    -0.0936729  
C300     C      0.010000000000     0.269500000000     0.629910000000     0.0382865  
C301     C      0.007160000000     0.221900000000     0.629670000000     0.0518621  
C302     C      0.970080000000     0.315670000000     0.608340000000     0.0903626  
C303     C      0.057780000000     0.353200000000     0.605520000000     0.0910761  
C304     C      0.056060000000     0.311250000000     0.622820000000    -0.0817836  
C305     C      0.101400000000     0.028460000000     0.755090000000     0.170688   
C306     C      0.144960000000     0.114020000000     0.739440000000     0.094103   
C307     C      0.100250000000     0.038300000000     0.797070000000    -0.1107     
C308     C      0.151300000000     0.126620000000     0.880130000000    -0.0833477  
C309     C      0.145850000000     0.124800000000     0.781320000000    -0.0870327  
C310     C      0.112030000000     0.096380000000     0.852370000000     0.03575    
C311     C      0.120590000000     0.086650000000     0.809970000000     0.0545293  
C312     C      0.141430000000     0.130550000000     0.921380000000     0.076818   
C313     C      0.054860000000     0.079190000000     0.906480000000     0.075549   
C314     C      0.063390000000     0.073900000000     0.865550000000    -0.0829711  
C315     C      0.046260000000     0.001500000000     0.238130000000     0.180281   
C316     C      0.087740000000     0.088340000000     0.244010000000     0.0918188  
C317     C      0.052210000000     0.996890000000     0.281630000000    -0.110723   
C318     C      0.046870000000     0.052000000000     0.372700000000    -0.0801214  
C319     C      0.093890000000     0.084600000000     0.287110000000    -0.0929268  
C320     C      0.072110000000     0.033780000000     0.352200000000     0.0366844  
C321     C      0.074150000000     0.038480000000     0.306370000000     0.0564978  
C322     C      0.042670000000     0.045650000000     0.415790000000     0.0857436  
C323     C      0.089590000000     0.005350000000     0.418870000000     0.081306   
C324     C      0.093440000000     0.010010000000     0.375500000000    -0.0826146  
C325     C      0.710960000000     0.732970000000     0.010260000000     0.180589   
C326     C      0.711600000000     0.739590000000     0.084040000000     0.0874266  
C327     C      0.747170000000     0.782040000000     0.007050000000    -0.119916   
C328     C      0.843460000000     0.874290000000     0.008440000000    -0.0872094  
C329     C      0.749500000000     0.788950000000     0.081470000000    -0.0949201  
C330     C      0.806920000000     0.862340000000     0.037230000000     0.03303    
C331     C      0.766900000000     0.810670000000     0.042360000000     0.0543006  
C332     C      0.881920000000     0.922320000000     0.004220000000     0.0824961  
C333     C      0.848130000000     0.948060000000     0.054710000000     0.0779104  
C334     C      0.808330000000     0.900130000000     0.059310000000    -0.0825977  
C335     C      0.361910000000     0.395710000000     0.017480000000     0.162782   
C336     C      0.411150000000     0.368450000000     0.056540000000     0.0862355  
C337     C      0.319170000000     0.359040000000     0.036490000000    -0.112675   
C338     C      0.239320000000     0.299810000000     0.097140000000    -0.0832878  
C339     C      0.369030000000     0.331320000000     0.075610000000    -0.0883984  
C340     C      0.277410000000     0.290370000000     0.088860000000     0.0322983  
C341     C      0.322590000000     0.327680000000     0.067170000000     0.0517385  
C342     C      0.194930000000     0.262510000000     0.113340000000     0.0760397  
C343     C      0.226610000000     0.208260000000     0.116880000000     0.0616963  
C344     C      0.271050000000     0.244310000000     0.100340000000    -0.0801236  
C345     C      0.887870000000     0.074090000000     0.166020000000     0.169543   
C346     C      0.937060000000     0.160820000000     0.158650000000     0.0819399  
C347     C      0.844530000000     0.077330000000     0.163680000000    -0.109794   
C348     C      0.756320000000     0.091670000000     0.165910000000    -0.0814804  
C349     C      0.894510000000     0.165050000000     0.157040000000    -0.0909113  
C350     C      0.801150000000     0.125310000000     0.147720000000     0.0341241  
C351     C      0.847310000000     0.122850000000     0.157420000000     0.0519094  
C352     C      0.711560000000     0.087370000000     0.149940000000     0.0776389  
C353     C      0.754630000000     0.152560000000     0.101530000000     0.0771043  
C354     C      0.800090000000     0.157510000000     0.116420000000    -0.0811819  
C355     C      0.198850000000     0.038020000000     0.093180000000     0.175431   
C356     C      0.177420000000     0.013170000000     0.022370000000     0.083764   
C357     C      0.241360000000     0.034530000000     0.092070000000    -0.116906   
C358     C      0.331430000000     0.028910000000     0.087050000000    -0.0879139  
C359     C      0.219230000000     0.008240000000     0.020730000000    -0.0962456  
C360     C      0.304540000000     0.031480000000     0.051300000000     0.0345547  
C361     C      0.253430000000     0.022150000000     0.055030000000     0.0536716  
C362     C      0.382880000000     0.054580000000     0.087860000000     0.0842317  
C363     C      0.381860000000     0.075520000000     0.015880000000     0.0816486  
C364     C      0.330120000000     0.053130000000     0.014730000000    -0.082971   
C365     C      0.973160000000     0.714340000000     0.983030000000     0.168935   
C366     C      0.963090000000     0.693270000000     0.055230000000     0.08452    
C367     C      0.961370000000     0.751120000000     0.988870000000    -0.111176   
C368     C      0.005460000000     0.849310000000     0.031410000000    -0.0866503  
C369     C      0.949050000000     0.727710000000     0.061420000000    -0.0942715  
C370     C      0.959490000000     0.808150000000     0.039280000000     0.0357131  
C371     C      0.952160000000     0.759770000000     0.028910000000     0.0525936  
C372     C      0.017750000000     0.894450000000     0.046820000000     0.0781556  
C373     C      0.939030000000     0.860390000000     0.076470000000     0.0798353  
C374     C      0.926000000000     0.813640000000     0.062480000000    -0.0839997  
C375     C      0.131220000000     0.450650000000     0.007720000000     0.177835   
C376     C      0.087300000000     0.430250000000     0.070250000000     0.0910234  
C377     C      0.127690000000     0.404700000000     0.008640000000    -0.108067   
C378     C      0.041590000000     0.279790000000     0.044990000000    -0.0836741  
C379     C      0.083820000000     0.384440000000     0.072260000000    -0.0836758  
C380     C      0.089250000000     0.318700000000     0.036630000000     0.040337   
C381     C      0.100980000000     0.370070000000     0.039550000000     0.0566404  
C382     C      0.031690000000     0.231580000000     0.044280000000     0.0841736  
C383     C      0.113620000000     0.259410000000     0.023860000000     0.0805677  
C384     C      0.124860000000     0.307990000000     0.024410000000    -0.086168   
Co1      Co     0.038970000000     0.118460000000     0.114550000000     1.0808     
Co2      Co     0.039350000000     0.026040000000     0.029830000000     1.14876    
Co3      Co     0.121370000000     0.124530000000     0.065270000000     1.09537    
Co4      Co     0.978220000000     0.022270000000     0.111310000000     1.01288    
Co5      Co     0.103160000000     0.003870000000     0.561150000000     1.07918    
Co6      Co     0.018410000000     0.012130000000     0.640090000000     1.07468    
Co7      Co     0.994110000000     0.988680000000     0.542100000000     1.07768    
Co8      Co     0.116080000000     0.099370000000     0.597670000000     1.10596    
Co9      Co     0.065860000000     0.545510000000     0.999150000000     0.863848   
Co10     Co     0.046100000000     0.618650000000     0.076340000000     1.14867    
Co11     Co     0.013120000000     0.518650000000     0.034470000000     0.829292   
Co12     Co     0.075760000000     0.648720000000     0.979680000000     1.12725    
Co13     Co     0.049020000000     0.444230000000     0.498360000000     1.18331    
Co14     Co     0.059870000000     0.559300000000     0.542480000000     1.07581    
Co15     Co     0.970480000000     0.450300000000     0.552610000000     1.16757    
Co16     Co     0.091080000000     0.560540000000     0.478790000000     0.853988   
Co17     Co     0.528620000000     0.106490000000     0.116580000000     1.11682    
Co18     Co     0.601560000000     0.081880000000     0.035260000000     0.764226   
Co19     Co     0.552080000000     0.148000000000     0.018750000000     1.18813    
Co20     Co     0.562700000000     0.042130000000     0.073030000000     0.77556    
Co21     Co     0.476600000000     0.993800000000     0.588600000000     1.16999    
Co22     Co     0.588580000000     0.023900000000     0.523480000000     0.801477   
Co23     Co     0.562090000000     0.061440000000     0.528040000000     0.754678   
Co24     Co     0.556100000000     0.958430000000     0.607570000000     1.1767     
Co25     Co     0.551300000000     0.520250000000     0.025450000000     1.09638    
Co26     Co     0.553290000000     0.628300000000     0.080710000000     1.12506    
Co27     Co     0.464490000000     0.518570000000     0.067280000000     1.07219    
Co28     Co     0.571730000000     0.606440000000     0.986910000000     1.08911    
Co29     Co     0.573140000000     0.464740000000     0.512720000000     1.07104    
Co30     Co     0.556050000000     0.574360000000     0.570850000000     1.02051    
Co31     Co     0.489310000000     0.452740000000     0.570390000000     1.12173    
Co32     Co     0.596540000000     0.570740000000     0.504830000000     1.05311    
H1       H      0.531260000000     0.576540000000     0.689130000000     0.0265039  
H2       H      0.517350000000     0.455690000000     0.908020000000     0.0339808  
H3       H      0.475130000000     0.419770000000     0.766660000000     0.0571456  
H4       H      0.514640000000     0.444690000000     0.833710000000     0.0592025  
H5       H      0.517490000000     0.572810000000     0.762730000000     0.0592813  
H6       H      0.453310000000     0.539300000000     0.811320000000     0.0819473  
H7       H      0.491140000000     0.425350000000     0.693070000000     0.0301443  
H8       H      0.494960000000     0.556020000000     0.407970000000     0.0320982  
H9       H      0.429250000000     0.523800000000     0.189160000000     0.0294524  
H10      H      0.529040000000     0.461630000000     0.310730000000     0.0654691  
H11      H      0.425250000000     0.500950000000     0.263080000000     0.0617723  
H12      H      0.477990000000     0.561660000000     0.333370000000     0.0579326  
H13      H      0.582040000000     0.552730000000     0.269010000000     0.0878225  
H14      H      0.544500000000     0.455600000000     0.385540000000     0.0329455  
H15      H      0.681310000000     0.729320000000     0.466200000000     0.0382059  
H16      H      0.565900000000     0.853980000000     0.577350000000     0.020423   
H17      H      0.531420000000     0.735190000000     0.496400000000     0.0547465  
H18      H      0.573880000000     0.787580000000     0.556210000000     0.0572546  
H19      H      0.687320000000     0.809840000000     0.470330000000     0.0643049  
H20      H      0.658210000000     0.873850000000     0.452030000000     0.0802965  
H21      H      0.528870000000     0.657740000000     0.496710000000     0.0259817  
H22      H      0.476530000000     0.316180000000     0.600270000000     0.0295658  
H23      H      0.632430000000     0.188430000000     0.577650000000     0.0496308  
H24      H      0.642860000000     0.332840000000     0.609670000000     0.0550219  
H25      H      0.632510000000     0.264270000000     0.578740000000     0.0616011  
H26      H      0.482970000000     0.243500000000     0.614120000000     0.0569928  
H27      H      0.506510000000     0.196140000000     0.656670000000     0.0788696  
H28      H      0.634530000000     0.403870000000     0.593460000000     0.0309098  
H29      H      0.442290000000     0.980950000000     0.709920000000     0.0361574  
H30      H      0.549900000000     0.995140000000     0.941610000000     0.0404272  
H31      H      0.587600000000     0.013850000000     0.803350000000     0.0565249  
H32      H      0.543660000000     0.970860000000     0.869900000000     0.0592015  
H33      H      0.440210000000     0.993080000000     0.783680000000     0.0627084  
H34      H      0.483550000000     0.063160000000     0.830860000000     0.0841149  
H35      H      0.588720000000     0.001810000000     0.729160000000     0.0281122  
H36      H      0.580310000000     0.107660000000     0.224800000000     0.0299484  
H37      H      0.540290000000     0.935510000000     0.415870000000     0.0436414  
H38      H      0.503620000000     0.932360000000     0.264720000000     0.057224   
H39      H      0.547910000000     0.943470000000     0.340220000000     0.0628683  
H40      H      0.562640000000     0.083270000000     0.296980000000     0.0637228  
H41      H      0.480250000000     0.032970000000     0.333960000000     0.0820874  
H42      H      0.521330000000     0.958190000000     0.191390000000     0.0376289  
H43      H      0.631710000000     0.761600000000     0.038040000000     0.0250329  
H44      H      0.671390000000     0.995980000000     0.997430000000     0.030467   
H45      H      0.535450000000     0.797540000000     0.928860000000     0.0588559  
H46      H      0.671430000000     0.924080000000     0.972070000000     0.0581287  
H47      H      0.650550000000     0.845050000000     0.027130000000     0.0574597  
H48      H      0.516670000000     0.834640000000     0.997750000000     0.0800363  
H49      H      0.519610000000     0.713070000000     0.938970000000     0.0352511  
H50      H      0.564740000000     0.232040000000     0.173200000000     0.0267078  
H51      H      0.629480000000     0.500010000000     0.108780000000     0.0485578  
H52      H      0.593100000000     0.355860000000     0.061870000000     0.0593911  
H53      H      0.644230000000     0.432270000000     0.114870000000     0.0619235  
H54      H      0.560510000000     0.305000000000     0.189270000000     0.0591002  
H55      H      0.496380000000     0.338310000000     0.156100000000     0.0776806  
H56      H      0.595410000000     0.282940000000     0.046620000000     0.0256688  
H57      H      0.851770000000     0.388020000000     0.475450000000     0.027223   
H58      H      0.713740000000     0.106060000000     0.453900000000     0.0480737  
H59      H      0.855930000000     0.247150000000     0.421180000000     0.0588341  
H60      H      0.790480000000     0.178890000000     0.440530000000     0.0623834  
H61      H      0.774920000000     0.317020000000     0.455700000000     0.058634   
H62      H      0.712480000000     0.258810000000     0.419230000000     0.0779939  
H63      H      0.931940000000     0.317300000000     0.446720000000     0.0425996  
H64      H      0.238290000000     0.618360000000     0.518860000000     0.0257114  
H65      H      0.452010000000     0.818610000000     0.627420000000     0.0242839  
H66      H      0.251450000000     0.690490000000     0.655100000000     0.0605348  
H67      H      0.385830000000     0.733340000000     0.631180000000     0.0589011  
H68      H      0.316460000000     0.689030000000     0.541240000000     0.0576272  
H69      H      0.282590000000     0.773160000000     0.574290000000     0.0822765  
H70      H      0.173760000000     0.617350000000     0.632510000000     0.036853   
H71      H      0.969990000000     0.610020000000     0.482850000000     0.0316165  
H72      H      0.721340000000     0.550230000000     0.554460000000     0.0330701  
H73      H      0.795920000000     0.482440000000     0.505160000000     0.0577956  
H74      H      0.802620000000     0.560380000000     0.552170000000     0.0602357  
H75      H      0.903630000000     0.628850000000     0.465110000000     0.0587548  
H76      H      0.798400000000     0.580690000000     0.418650000000     0.0816731  
H77      H      0.862110000000     0.465970000000     0.524420000000     0.0246348  
H78      H      0.363780000000     0.457860000000     0.573650000000     0.0260564  
H79      H      0.224820000000     0.580230000000     0.451140000000     0.0249848  
H80      H      0.371400000000     0.575600000000     0.463180000000     0.0530177  
H81      H      0.305160000000     0.586700000000     0.466660000000     0.0547662  
H82      H      0.287880000000     0.454070000000     0.548090000000     0.0593139  
H83      H      0.230520000000     0.431560000000     0.495490000000     0.0803244  
H84      H      0.447340000000     0.580690000000     0.492550000000     0.0276191  
H85      H      0.089550000000     0.531800000000     0.881620000000     0.0527342  
H86      H      0.036330000000     0.593710000000     0.654080000000     0.034847   
H87      H      0.992440000000     0.586530000000     0.790430000000     0.0583206  
H88      H      0.042670000000     0.609990000000     0.727620000000     0.0608012  
H89      H      0.077460000000     0.513230000000     0.808120000000     0.0654028  
H90      H      0.012370000000     0.463390000000     0.757110000000     0.0819658  
H91      H      0.005970000000     0.605340000000     0.864410000000     0.0404379  
H92      H      0.966390000000     0.452620000000     0.152520000000     0.0389519  
H93      H      0.004360000000     0.548980000000     0.375960000000     0.0328867  
H94      H      0.081900000000     0.576880000000     0.253940000000     0.0616769  
H95      H      0.000150000000     0.555150000000     0.300730000000     0.0604723  
H96      H      0.956620000000     0.433360000000     0.227320000000     0.0593775  
H97      H      0.021830000000     0.432170000000     0.292570000000     0.0817661  
H98      H      0.091630000000     0.594600000000     0.179770000000     0.0405078  
H99      H      0.673550000000     0.268920000000     0.982400000000     0.028189   
H100     H      0.908530000000     0.451760000000     0.932370000000     0.0320138  
H101     H      0.801220000000     0.231220000000     0.945310000000     0.05791    
H102     H      0.826120000000     0.380940000000     0.915890000000     0.057078   
H103     H      0.755130000000     0.335750000000     0.966000000000     0.0545115  
H104     H      0.863560000000     0.289850000000     0.996000000000     0.0785591  
H105     H      0.718600000000     0.164610000000     0.962080000000     0.0349737  
H106     H      0.419800000000     0.948050000000     0.016150000000     0.0494397  
H107     H      0.174260000000     0.781100000000     0.003250000000     0.0315019  
H108     H      0.316550000000     0.897930000000     0.139100000000     0.0572795  
H109     H      0.252770000000     0.854640000000     0.012110000000     0.0607182  
H110     H      0.339650000000     0.873460000000     0.013530000000     0.0634584  
H111     H      0.275140000000     0.803990000000     0.133960000000     0.0793065  
H112     H      0.398660000000     0.972000000000     0.141250000000     0.0253621  
H113     H      0.902510000000     0.582140000000     0.093420000000     0.0257124  
H114     H      0.639050000000     0.466110000000     0.976080000000     0.0309559  
H115     H      0.801120000000     0.498070000000     0.966890000000     0.0551016  
H116     H      0.717240000000     0.466660000000     0.985570000000     0.0548033  
H117     H      0.824400000000     0.580030000000     0.078150000000     0.0584856  
H118     H      0.787580000000     0.612850000000     0.032850000000     0.0807449  
H119     H      0.878460000000     0.499450000000     0.983930000000     0.0337762  
H120     H      0.371150000000     0.556450000000     0.998230000000     0.0554488  
H121     H      0.203850000000     0.633360000000     0.071950000000     0.0428163  
H122     H      0.385730000000     0.697110000000     0.071260000000     0.0606987  
H123     H      0.283320000000     0.637440000000     0.083230000000     0.0649701  
H124     H      0.311210000000     0.582620000000     0.980890000000     0.0756516  
H125     H      0.309110000000     0.668880000000     0.952390000000     0.0833928  
H126     H      0.446990000000     0.671170000000     0.087030000000     0.0295012  
H127     H      0.744200000000     0.643220000000     0.546080000000     0.0372467  
H128     H      0.959190000000     0.849980000000     0.654670000000     0.0393196  
H129     H      0.757040000000     0.722650000000     0.678210000000     0.0586455  
H130     H      0.893110000000     0.763310000000     0.659390000000     0.061888   
H131     H      0.822880000000     0.713210000000     0.567960000000     0.0660026  
H132     H      0.789330000000     0.800390000000     0.598690000000     0.0825454  
H133     H      0.678690000000     0.650150000000     0.656600000000     0.0303406  
H134     H      0.374770000000     0.392310000000     0.494710000000     0.0292614  
H135     H      0.240300000000     0.108400000000     0.516590000000     0.0302531  
H136     H      0.378600000000     0.243320000000     0.463270000000     0.0555791  
H137     H      0.316770000000     0.180510000000     0.498990000000     0.0582973  
H138     H      0.298210000000     0.316770000000     0.488980000000     0.0587872  
H139     H      0.235040000000     0.252560000000     0.457850000000     0.0793579  
H140     H      0.456320000000     0.320870000000     0.472900000000     0.0282664  
H141     H      0.914420000000     0.063430000000     0.521240000000     0.0345846  
H142     H      0.692430000000     0.009350000000     0.646870000000     0.0243906  
H143     H      0.859460000000     0.067340000000     0.661110000000     0.0607889  
H144     H      0.772190000000     0.016800000000     0.644740000000     0.0620494  
H145     H      0.848700000000     0.083460000000     0.527130000000     0.0628609  
H146     H      0.818190000000     0.138560000000     0.558120000000     0.07748    
H147     H      0.921960000000     0.045490000000     0.654080000000     0.0389147  
H148     H      0.458780000000     0.125130000000     0.527130000000     0.0366273  
H149     H      0.184920000000     0.976080000000     0.608770000000     0.0219524  
H150     H      0.326320000000     0.980140000000     0.598180000000     0.0616519  
H151     H      0.255710000000     0.976980000000     0.585670000000     0.0599361  
H152     H      0.390160000000     0.130690000000     0.553960000000     0.0544069  
H153     H      0.343940000000     0.132810000000     0.606150000000     0.0775852  
H154     H      0.389050000000     0.974380000000     0.566280000000     0.0231153  
H155     H      0.086570000000     0.691770000000     0.583690000000     0.0370658  
H156     H      0.104580000000     0.906980000000     0.571640000000     0.015266   
H157     H      0.046050000000     0.750020000000     0.449510000000     0.0579164  
H158     H      0.119230000000     0.843520000000     0.553780000000     0.0608636  
H159     H      0.068740000000     0.756920000000     0.583660000000     0.0581855  
H160     H      0.977880000000     0.770910000000     0.485620000000     0.0779484  
H161     H      0.063150000000     0.681940000000     0.450580000000     0.0318995  
H162     H      0.935650000000     0.316000000000     0.602230000000     0.033667   
H163     H      0.030470000000     0.160330000000     0.560920000000     0.0452441  
H164     H      0.090080000000     0.309780000000     0.626540000000     0.0658504  
H165     H      0.013560000000     0.226180000000     0.562810000000     0.0681169  
H166     H      0.930660000000     0.240330000000     0.629500000000     0.0614046  
H167     H      0.001640000000     0.207490000000     0.695980000000     0.0818525  
H168     H      0.093830000000     0.383850000000     0.597660000000     0.04437    
H169     H      0.172790000000     0.152240000000     0.942760000000     0.0277189  
H170     H      0.162040000000     0.144860000000     0.717690000000     0.0406869  
H171     H      0.032030000000     0.051390000000     0.844480000000     0.0636123  
H172     H      0.163160000000     0.162710000000     0.790560000000     0.0660158  
H173     H      0.189380000000     0.145220000000     0.870630000000     0.0584396  
H174     H      0.083490000000     0.008340000000     0.819660000000     0.0801571  
H175     H      0.016530000000     0.059930000000     0.915560000000     0.0309865  
H176     H      0.021960000000     0.059500000000     0.430400000000     0.0433156  
H177     H      0.101890000000     0.125030000000     0.230800000000     0.0392395  
H178     H      0.113120000000     0.995440000000     0.360360000000     0.0616861  
H179     H      0.112100000000     0.117590000000     0.305510000000     0.0660522  
H180     H      0.029490000000     0.070120000000     0.355350000000     0.0652668  
H181     H      0.038320000000     0.960890000000     0.296190000000     0.0850282  
H182     H      0.106800000000     0.986950000000     0.436080000000     0.0297327  
H183     H      0.910540000000     0.929410000000     0.982920000000     0.0225797  
H184     H      0.697500000000     0.724440000000     0.114530000000     0.0370092  
H185     H      0.779650000000     0.892590000000     0.080600000000     0.0592177  
H186     H      0.764750000000     0.809950000000     0.109770000000     0.0644314  
H187     H      0.843830000000     0.846410000000     0.990420000000     0.0584722  
H188     H      0.759730000000     0.797690000000     0.976330000000     0.0810031  
H189     H      0.849710000000     0.976050000000     0.074030000000     0.0364832  
H190     H      0.165480000000     0.270420000000     0.117450000000     0.0335285  
H191     H      0.446730000000     0.371700000000     0.065900000000     0.0376713  
H192     H      0.299090000000     0.234980000000     0.094820000000     0.0556236  
H193     H      0.373540000000     0.307160000000     0.098250000000     0.0677749  
H194     H      0.243160000000     0.335420000000     0.090250000000     0.0569288  
H195     H      0.283220000000     0.354440000000     0.026530000000     0.0764134  
H196     H      0.222790000000     0.172620000000     0.124000000000     0.0390612  
H197     H      0.677430000000     0.059170000000     0.163420000000     0.0355605  
H198     H      0.972540000000     0.194380000000     0.155400000000     0.0356559  
H199     H      0.833650000000     0.184220000000     0.101390000000     0.0581794  
H200     H      0.898600000000     0.201160000000     0.153670000000     0.0604117  
H201     H      0.755400000000     0.067210000000     0.191170000000     0.0590595  
H202     H      0.808740000000     0.044000000000     0.165630000000     0.0793931  
H203     H      0.755100000000     0.176300000000     0.075720000000     0.0335664  
H204     H      0.402450000000     0.054720000000     0.117130000000     0.0207449  
H205     H      0.153720000000     0.005850000000     0.994170000000     0.0240896  
H206     H      0.311080000000     0.056270000000     0.986300000000     0.0581034  
H207     H      0.226240000000     0.996690000000     0.991970000000     0.0588065  
H208     H      0.313190000000     0.010300000000     0.115400000000     0.056538   
H209     H      0.265850000000     0.044020000000     0.119820000000     0.080519   
H210     H      0.400910000000     0.094210000000     0.987860000000     0.0402876  
H211     H      0.054490000000     0.924820000000     0.040260000000     0.0278462  
H212     H      0.964210000000     0.672030000000     0.082480000000     0.0231587  
H213     H      0.890420000000     0.782130000000     0.069940000000     0.0623505  
H214     H      0.941490000000     0.732850000000     0.092700000000     0.0632284  
H215     H      0.032980000000     0.846320000000     0.014870000000     0.060754   
H216     H      0.961990000000     0.774580000000     0.962800000000     0.0802753  
H217     H      0.912300000000     0.863970000000     0.093670000000     0.0333068  
H218     H      0.995120000000     0.202590000000     0.052950000000     0.0344993  
H219     H      0.069280000000     0.438250000000     0.093930000000     0.0407134  
H220     H      0.161930000000     0.336930000000     0.017050000000     0.0586438  
H221     H      0.065120000000     0.359370000000     0.097870000000     0.0641548  
H222     H      0.012380000000     0.286560000000     0.052850000000     0.070857   
H223     H      0.144080000000     0.395530000000     0.984430000000     0.0841693  
H224     H      0.143040000000     0.252850000000     0.016060000000     0.027009   
N1       N      0.491760000000     0.507340000000     0.902390000000    -0.219396   
N2       N      0.512040000000     0.501250000000     0.685620000000    -0.209355   
N3       N      0.449140000000     0.554920000000     0.891010000000    -0.0321829  
N4       N      0.507850000000     0.552130000000     0.186500000000    -0.214134   
N5       N      0.522680000000     0.506820000000     0.401970000000    -0.200298   
N6       N      0.598470000000     0.584210000000     0.191700000000    -0.0300427  
N7       N      0.605430000000     0.903150000000     0.526660000000    -0.211647   
N8       N      0.605460000000     0.688880000000     0.483250000000    -0.194894   
N9       N      0.658100000000     0.954800000000     0.469780000000    -0.0323589  
N10      N      0.567240000000     0.146780000000     0.613280000000    -0.202075   
N11      N      0.554830000000     0.365050000000     0.594590000000    -0.204296   
N12      N      0.500860000000     0.109960000000     0.663310000000    -0.0332415  
N13      N      0.521580000000     0.043990000000     0.928010000000    -0.211666   
N14      N      0.515990000000     0.991330000000     0.713820000000    -0.206501   
N15      N      0.479700000000     0.090290000000     0.906240000000    -0.0340652  
N16      N      0.509920000000     0.982740000000     0.418830000000    -0.204128   
N17      N      0.551300000000     0.034670000000     0.202420000000    -0.194754   
N18      N      0.461050000000     0.024170000000     0.414320000000    -0.0316514  
N19      N      0.595360000000     0.955900000000     0.014350000000    -0.193164   
N20      N      0.572750000000     0.731350000000     0.990380000000    -0.208157   
N21      N      0.505040000000     0.905460000000     0.022990000000    -0.0303844  
N22      N      0.552480000000     0.458120000000     0.124300000000    -0.199856   
N23      N      0.579220000000     0.251550000000     0.108560000000    -0.202872   
N24      N      0.472560000000     0.408670000000     0.157940000000    -0.0329726  
N25      N      0.670030000000     0.141220000000     0.450820000000    -0.190906   
N26      N      0.897510000000     0.357470000000     0.463740000000    -0.206092   
N27      N      0.622820000000     0.182910000000     0.432020000000    -0.0315798  
N28      N      0.406270000000     0.845520000000     0.597670000000    -0.214567   
N29      N      0.200110000000     0.614330000000     0.573340000000    -0.199971   
N30      N      0.346390000000     0.865740000000     0.561100000000    -0.0337902  
N31      N      0.711930000000     0.558990000000     0.488140000000    -0.212626   
N32      N      0.920790000000     0.537640000000     0.506660000000    -0.212036   
N33      N      0.710860000000     0.577130000000     0.412760000000    -0.0361052  
N34      N      0.182720000000     0.504740000000     0.469930000000    -0.215134   
N35      N      0.411090000000     0.519550000000     0.535090000000    -0.21078    
N36      N      0.139270000000     0.415530000000     0.483000000000    -0.0378505  
N37      N      0.021220000000     0.519500000000     0.662570000000    -0.216427   
N38      N      0.048800000000     0.570070000000     0.878300000000    -0.198724   
N39      N      0.011580000000     0.438400000000     0.680340000000    -0.0324583  
N40      N      0.018750000000     0.489010000000     0.378540000000    -0.209319   
N41      N      0.029120000000     0.525200000000     0.160870000000    -0.201542   
N42      N      0.027740000000     0.416200000000     0.373350000000    -0.0318025  
N43      N      0.931300000000     0.411690000000     0.974830000000    -0.191459   
N44      N      0.690640000000     0.211890000000     0.974990000000    -0.198295   
N45      N      0.956020000000     0.358730000000     0.014980000000    -0.0315883  
N46      N      0.177890000000     0.747810000000     0.062830000000    -0.213672   
N47      N      0.415730000000     0.964850000000     0.079180000000    -0.194873   
N48      N      0.188490000000     0.721100000000     0.134350000000    -0.0309305  
N49      N      0.667470000000     0.538050000000     0.000050000000    -0.18942    
N50      N      0.896820000000     0.541760000000     0.039580000000    -0.197896   
N51      N      0.704900000000     0.612550000000     0.041820000000    -0.0354674  
N52      N      0.209900000000     0.648420000000     0.005970000000    -0.204694   
N53      N      0.413160000000     0.611300000000     0.044530000000    -0.196381   
N54      N      0.226270000000     0.671670000000     0.932060000000    -0.0328912  
N55      N      0.912610000000     0.873950000000     0.622540000000    -0.207625   
N56      N      0.705140000000     0.641940000000     0.599220000000    -0.200872   
N57      N      0.850880000000     0.895350000000     0.593170000000    -0.032773   
N58      N      0.194120000000     0.140180000000     0.502490000000    -0.2112     
N59      N      0.421350000000     0.361770000000     0.486100000000    -0.206392   
N60      N      0.146790000000     0.180050000000     0.476840000000    -0.0323729  
N61      N      0.705890000000     0.066160000000     0.600810000000    -0.211038   
N62      N      0.921210000000     0.050700000000     0.586930000000    -0.199599   
N63      N      0.735670000000     0.144670000000     0.562150000000    -0.0320153  
N64      N      0.220430000000     0.054020000000     0.616710000000    -0.212016   
N65      N      0.428720000000     0.049340000000     0.544050000000    -0.200377   
N66      N      0.270360000000     0.142060000000     0.632220000000    -0.0323412  
N67      N      0.032290000000     0.877190000000     0.539640000000    -0.211442   
N68      N      0.075860000000     0.681690000000     0.517090000000    -0.189333   
N69      N      0.950640000000     0.835640000000     0.501660000000    -0.0342073  
N70      N      0.028070000000     0.146370000000     0.627430000000    -0.214552   
N71      N      0.014790000000     0.354120000000     0.595930000000    -0.206456   
N72      N      0.020030000000     0.134360000000     0.703610000000    -0.0336485  
N73      N      0.119030000000     0.066400000000     0.725780000000    -0.208859   
N74      N      0.093680000000     0.105180000000     0.934830000000    -0.204599   
N75      N      0.084780000000     0.978780000000     0.743920000000    -0.0329905  
N76      N      0.060810000000     0.047240000000     0.220000000000    -0.209902   
N77      N      0.064070000000     0.022740000000     0.438760000000    -0.202036   
N78      N      0.024720000000     0.957800000000     0.213760000000    -0.0323908  
N79      N      0.691040000000     0.712220000000     0.048650000000    -0.218363   
N80      N      0.886440000000     0.958040000000     0.029720000000    -0.211228   
N81      N      0.694440000000     0.706140000000     0.971920000000    -0.0356948  
N82      N      0.408130000000     0.402550000000     0.030290000000    -0.213473   
N83      N      0.187860000000     0.216430000000     0.121080000000    -0.205432   
N84      N      0.356190000000     0.424400000000     0.983620000000    -0.0325932  
N85      N      0.933520000000     0.115620000000     0.159750000000    -0.201288   
N86      N      0.710630000000     0.115810000000     0.116530000000    -0.19869    
N87      N      0.883510000000     0.027190000000     0.176010000000    -0.0342346  
N88      N      0.170140000000     0.032210000000     0.056960000000    -0.222394   
N89      N      0.407830000000     0.078450000000     0.052790000000    -0.215343   
N90      N      0.185870000000     0.047260000000     0.132660000000    -0.0328916  
N91      N      0.979620000000     0.689740000000     0.017460000000    -0.215532   
N92      N      0.984820000000     0.900370000000     0.068840000000    -0.208076   
N93      N      0.981120000000     0.705670000000     0.941480000000    -0.0342105  
N94      N      0.105590000000     0.460200000000     0.035740000000    -0.192632   
N95      N      0.068460000000     0.221810000000     0.036310000000    -0.201533   
N96      N      0.161480000000     0.487060000000     0.977290000000    -0.0307225  
O1       O      0.024920000000     0.145030000000     0.065390000000    -0.434208   
O2       O      0.969710000000     0.998070000000     0.024600000000    -0.477614   
O3       O      0.120060000000     0.119270000000     0.004180000000    -0.43625    
O4       O      0.967320000000     0.072090000000     0.135160000000    -0.476916   
O5       O      0.042030000000     0.070760000000     0.988530000000    -0.46722    
O6       O      0.016040000000     0.150100000000     0.145270000000    -0.402875   
O7       O      0.939450000000     0.026010000000     0.066050000000    -0.45179    
O8       O      0.102040000000     0.172920000000     0.049470000000    -0.446716   
O9       O      0.056480000000     0.095390000000     0.166060000000    -0.422111   
O10      O      0.106390000000     0.039130000000     0.024130000000    -0.46278    
O11      O      0.132860000000     0.135250000000     0.122090000000    -0.441124   
O12      O      0.967980000000     0.957410000000     0.094550000000    -0.405458   
O13      O      0.038580000000     0.981810000000     0.069590000000    -0.475283   
O14      O      0.103450000000     0.180980000000     0.124040000000    -0.378806   
O15      O      0.012820000000     0.016740000000     0.159460000000    -0.42131    
O16      O      0.143590000000     0.081710000000     0.078580000000    -0.454822   
O17      O      0.049620000000     0.072490000000     0.078540000000    -0.541932   
O18      O      0.078590000000     0.995360000000     0.502740000000    -0.43872    
O19      O      0.035310000000     0.080030000000     0.651350000000    -0.411673   
O20      O      0.974140000000     0.035920000000     0.551000000000    -0.41842    
O21      O      0.124270000000     0.112870000000     0.539490000000    -0.417358   
O22      O      0.960020000000     0.010910000000     0.615990000000    -0.435586   
O23      O      0.155010000000     0.065230000000     0.536420000000    -0.437418   
O24      O      0.067670000000     0.116280000000     0.592780000000    -0.455507   
O25      O      0.032980000000     0.029530000000     0.499030000000    -0.4371     
O26      O      0.135510000000     0.012640000000     0.614290000000    -0.432722   
O27      O      0.991100000000     0.941660000000     0.635190000000    -0.403265   
O28      O      0.003530000000     0.931990000000     0.529350000000    -0.391117   
O29      O      0.117550000000     0.094150000000     0.658440000000    -0.428615   
O30      O      0.073360000000     0.015940000000     0.671390000000    -0.415376   
O31      O      0.056360000000     0.942720000000     0.580290000000    -0.443685   
O32      O      0.173630000000     0.090800000000     0.606290000000    -0.423197   
O33      O      0.947030000000     0.941340000000     0.579520000000    -0.422159   
O34      O      0.057860000000     0.026850000000     0.584620000000    -0.531718   
O35      O      0.995780000000     0.493580000000     0.973890000000    -0.393818   
O36      O      0.026300000000     0.661540000000     0.052100000000    -0.473628   
O37      O      0.956370000000     0.524900000000     0.022390000000    -0.384118   
O38      O      0.040010000000     0.604950000000     0.935540000000    -0.442848   
O39      O      0.972940000000     0.572430000000     0.076190000000    -0.419053   
O40      O      0.082040000000     0.568020000000     0.943410000000    -0.382085   
O41      O      0.018540000000     0.655700000000     0.984050000000    -0.419548   
O42      O      0.975820000000     0.452150000000     0.033120000000    -0.352961   
O43      O      0.131000000000     0.590690000000     0.019250000000    -0.383667   
O44      O      0.065890000000     0.578850000000     0.106950000000    -0.450329   
O45      O      0.070130000000     0.506270000000     0.051540000000    -0.401088   
O46      O      0.113290000000     0.699960000000     0.017530000000    -0.465807   
O47      O      0.115710000000     0.668270000000     0.078730000000    -0.422935   
O48      O      0.085400000000     0.502850000000     0.986920000000    -0.356445   
O49      O      0.140520000000     0.649300000000     0.974440000000    -0.386659   
O50      O      0.999690000000     0.510710000000     0.092620000000    -0.375812   
O51      O      0.050490000000     0.592430000000     0.022740000000    -0.581643   
O52      O      0.979810000000     0.393850000000     0.486660000000    -0.443304   
O53      O      0.082840000000     0.622600000000     0.554690000000    -0.424375   
O54      O      0.947470000000     0.494530000000     0.548260000000    -0.478898   
O55      O      0.039260000000     0.532610000000     0.438520000000    -0.417576   
O56      O      0.001460000000     0.555400000000     0.512270000000    -0.433054   
O57      O      0.042960000000     0.464950000000     0.440510000000    -0.415969   
O58      O      0.077480000000     0.616810000000     0.487030000000    -0.395422   
O59      O      0.937110000000     0.427590000000     0.501060000000    -0.479635   
O60      O      0.115990000000     0.484120000000     0.507190000000    -0.466335   
O61      O      0.029310000000     0.547010000000     0.594540000000    -0.423491   
O62      O      0.977770000000     0.394480000000     0.564250000000    -0.464512   
O63      O      0.147940000000     0.591310000000     0.515610000000    -0.446097   
O64      O      0.115280000000     0.563200000000     0.574680000000    -0.415847   
O65      O      0.054170000000     0.419620000000     0.551700000000    -0.45124    
O66      O      0.128100000000     0.533000000000     0.455100000000    -0.396642   
O67      O      0.999110000000     0.469540000000     0.606360000000    -0.455844   
O68      O      0.039410000000     0.496520000000     0.523050000000    -0.577614   
O69      O      0.481090000000     0.118790000000     0.090050000000    -0.485211   
O70      O      0.625430000000     0.039730000000     0.018670000000    -0.347031   
O71      O      0.541150000000     0.106190000000     0.972960000000    -0.440852   
O72      O      0.494090000000     0.010250000000     0.054850000000    -0.362234   
O73      O      0.547110000000     0.043860000000     0.996890000000    -0.408259   
O74      O      0.476710000000     0.036140000000     0.110280000000    -0.42676    
O75      O      0.566460000000     0.987240000000     0.061260000000    -0.339198   
O76      O      0.482940000000     0.110950000000     0.023540000000    -0.472117   
O77      O      0.572760000000     0.093880000000     0.150850000000    -0.435977   
O78      O      0.635590000000     0.130610000000     0.991250000000    -0.360739   
O79      O      0.561800000000     0.195360000000     0.058710000000    -0.451016   
O80      O      0.627090000000     0.065480000000     0.102960000000    -0.402113   
O81      O      0.663370000000     0.126630000000     0.064260000000    -0.380286   
O82      O      0.571560000000     0.175810000000     0.124370000000    -0.428733   
O83      O      0.543440000000     0.019100000000     0.131390000000    -0.338663   
O84      O      0.619810000000     0.187090000000     0.009350000000    -0.458444   
O85      O      0.564880000000     0.108570000000     0.064910000000    -0.541358   
O86      O      0.464510000000     0.004220000000     0.533500000000    -0.442839   
O87      O      0.617270000000     0.981690000000     0.526410000000    -0.351296   
O88      O      0.527320000000     0.030530000000     0.475690000000    -0.369148   
O89      O      0.488040000000     0.904870000000     0.611800000000    -0.453231   
O90      O      0.543970000000     0.974930000000     0.482690000000    -0.366386   
O91      O      0.438220000000     0.926710000000     0.578760000000    -0.440219   
O92      O      0.559590000000     0.924270000000     0.563680000000    -0.465096   
O93      O      0.509580000000     0.080740000000     0.525530000000    -0.322015   
O94      O      0.481960000000     0.981070000000     0.646910000000    -0.466414   
O95      O      0.631730000000     0.063660000000     0.481220000000    -0.350529   
O96      O      0.589400000000     0.100540000000     0.576890000000    -0.360905   
O97      O      0.624690000000     0.006370000000     0.606860000000    -0.4646     
O98      O      0.640820000000     0.066290000000     0.562130000000    -0.387538   
O99      O      0.515320000000     0.064130000000     0.603200000000    -0.414538   
O100     O      0.555010000000     0.988970000000     0.656540000000    -0.473688   
O101     O      0.603430000000     0.114100000000     0.493100000000    -0.3288     
O102     O      0.536270000000     0.996860000000     0.567670000000    -0.551289   
O103     O      0.493350000000     0.453050000000     0.032330000000    -0.387923   
O104     O      0.563990000000     0.676750000000     0.041560000000    -0.489146   
O105     O      0.435070000000     0.552560000000     0.042320000000    -0.425552   
O106     O      0.520570000000     0.567800000000     0.949490000000    -0.460777   
O107     O      0.484250000000     0.618420000000     0.079250000000    -0.414888   
O108     O      0.525700000000     0.505580000000     0.967570000000    -0.44018    
O109     O      0.544240000000     0.649790000000     0.978290000000    -0.408663   
O110     O      0.448130000000     0.484420000000     0.017300000000    -0.429931   
O111     O      0.585490000000     0.491910000000     0.013800000000    -0.409439   
O112     O      0.548110000000     0.587360000000     0.126310000000    -0.450829   
O113     O      0.495700000000     0.481810000000     0.099030000000    -0.390769   
O114     O      0.623850000000     0.650800000000     0.016420000000    -0.503326   
O115     O      0.623890000000     0.650020000000     0.083370000000    -0.422497   
O116     O      0.573030000000     0.524960000000     0.081820000000    -0.420755   
O117     O      0.613320000000     0.569340000000     0.991850000000    -0.427074   
O118     O      0.468900000000     0.545590000000     0.121710000000    -0.442641   
O119     O      0.529390000000     0.569250000000     0.039450000000    -0.564735   
O120     O      0.506200000000     0.406270000000     0.501500000000    -0.43173    
O121     O      0.582740000000     0.622500000000     0.526310000000    -0.513716   
O122     O      0.452590000000     0.486130000000     0.571720000000    -0.462345   
O123     O      0.543200000000     0.543730000000     0.465250000000    -0.437184   
O124     O      0.495530000000     0.557400000000     0.542640000000    -0.464983   
O125     O      0.559360000000     0.484960000000     0.456820000000    -0.431977   
O126     O      0.626300000000     0.630070000000     0.473370000000    -0.37439    
O127     O      0.460750000000     0.435790000000     0.516760000000    -0.476889   
O128     O      0.639510000000     0.511870000000     0.520020000000    -0.463731   
O129     O      0.528470000000     0.541840000000     0.622340000000    -0.447833   
O130     O      0.508900000000     0.402550000000     0.577330000000    -0.438172   
O131     O      0.653920000000     0.600240000000     0.543320000000    -0.426022   
O132     O      0.619530000000     0.598700000000     0.599960000000    -0.436414   
O133     O      0.586330000000     0.440480000000     0.563400000000    -0.445459   
O134     O      0.639070000000     0.558310000000     0.470440000000    -0.3772     
O135     O      0.513360000000     0.466880000000     0.625340000000    -0.473781   
O136     O      0.556230000000     0.510870000000     0.543890000000    -0.530671   
O137     O      0.424890000000     0.540760000000     0.925210000000    -0.0634948  
O138     O      0.448850000000     0.590180000000     0.868470000000    -0.0977178  
O139     O      0.622160000000     0.560330000000     0.190110000000    -0.0867157  
O140     O      0.622530000000     0.631600000000     0.186000000000    -0.0860746  
O141     O      0.631420000000     0.969100000000     0.447180000000    -0.0844291  
O142     O      0.705380000000     0.975480000000     0.463590000000    -0.0980679  
O143     O      0.456040000000     0.101340000000     0.668200000000    -0.108553   
O144     O      0.518140000000     0.087030000000     0.687220000000    -0.0987592  
O145     O      0.448100000000     0.075590000000     0.935590000000    -0.0968532  
O146     O      0.484430000000     0.125840000000     0.881060000000    -0.105017   
O147     O      0.429390000000     0.997280000000     0.442260000000    -0.0755952  
O148     O      0.461410000000     0.063430000000     0.399490000000    -0.0877641  
O149     O      0.474380000000     0.867940000000     0.045360000000    -0.10087    
O150     O      0.489070000000     0.931820000000     0.002710000000    -0.0907341  
O151     O      0.474430000000     0.444880000000     0.177110000000    -0.0958809  
O152     O      0.433260000000     0.365350000000     0.161350000000    -0.114629   
O153     O      0.583130000000     0.144690000000     0.416810000000    -0.0755821  
O154     O      0.621720000000     0.222960000000     0.437010000000    -0.0987524  
O155     O      0.311610000000     0.872100000000     0.574450000000    -0.111089   
O156     O      0.361160000000     0.880310000000     0.523350000000    -0.0796174  
O157     O      0.710500000000     0.555510000000     0.379140000000    -0.100025   
O158     O      0.698510000000     0.610810000000     0.409520000000    -0.0697521  
O159     O      0.137910000000     0.381320000000     0.508190000000    -0.104264   
O160     O      0.101170000000     0.405030000000     0.457430000000    -0.112524   
O161     O      0.977450000000     0.396860000000     0.695800000000    -0.102635   
O162     O      0.048470000000     0.439880000000     0.662320000000    -0.0884905  
O163     O      0.062790000000     0.409730000000     0.360820000000    -0.0915392  
O164     O      0.993090000000     0.381830000000     0.395470000000    -0.0956686  
O165     O      0.001570000000     0.380140000000     0.003290000000    -0.0956501  
O166     O      0.942260000000     0.325370000000     0.044600000000    -0.111581   
O167     O      0.217620000000     0.706970000000     0.152910000000    -0.103713   
O168     O      0.148620000000     0.712330000000     0.152470000000    -0.101839   
O169     O      0.742160000000     0.657290000000     0.044930000000    -0.0983594  
O170     O      0.673700000000     0.595040000000     0.071580000000    -0.0853385  
O171     O      0.232830000000     0.652680000000     0.899710000000    -0.0920988  
O172     O      0.215730000000     0.706480000000     0.926260000000    -0.09127    
O173     O      0.860570000000     0.931890000000     0.616570000000    -0.0945506  
O174     O      0.820810000000     0.886060000000     0.560370000000    -0.0996179  
O175     O      0.107620000000     0.141590000000     0.461450000000    -0.0876431  
O176     O      0.145710000000     0.220400000000     0.479860000000    -0.0982239  
O177     O      0.764520000000     0.174210000000     0.533620000000    -0.109634   
O178     O      0.708690000000     0.157590000000     0.581270000000    -0.0838464  
O179     O      0.302360000000     0.184320000000     0.616210000000    -0.109614   
O180     O      0.247680000000     0.140990000000     0.665230000000    -0.0946845  
O181     O      0.923920000000     0.838990000000     0.529370000000    -0.0937503  
O182     O      0.930390000000     0.819390000000     0.464790000000    -0.0989174  
O183     O      0.983910000000     0.117540000000     0.729090000000    -0.107951   
O184     O      0.062880000000     0.140440000000     0.717440000000    -0.0975936  
O185     O      0.048050000000     0.942240000000     0.762750000000    -0.100269   
O186     O      0.111220000000     0.969870000000     0.719920000000    -0.074964   
O187     O      0.987730000000     0.917120000000     0.227690000000    -0.0931189  
O188     O      0.047330000000     0.956430000000     0.181650000000    -0.0713964  
O189     O      0.700670000000     0.669000000000     0.967340000000    -0.0850865  
O190     O      0.680520000000     0.723480000000     0.939510000000    -0.11048    
O191     O      0.320840000000     0.434880000000     0.983260000000    -0.097906   
O192     O      0.381990000000     0.434490000000     0.950570000000    -0.0800839  
O193     O      0.844340000000     0.986940000000     0.163090000000    -0.111694   
O194     O      0.914980000000     0.024220000000     0.202990000000    -0.0942981  
O195     O      0.220420000000     0.075570000000     0.159760000000    -0.100704   
O196     O      0.139990000000     0.022490000000     0.143710000000    -0.0687883  
O197     O      0.005170000000     0.742450000000     0.915850000000    -0.104896   
O198     O      0.956070000000     0.661500000000     0.926790000000    -0.0865059  
O199     O      0.185810000000     0.533300000000     0.986710000000    -0.0833006  
O200     O      0.169620000000     0.473950000000     0.942190000000    -0.0911952  


