data_structure

_audit_creation_method RASPA-1.0
_audit_creation_date 2023-6-4
_audit_author_name 'Poobodin Mano'

_cell_length_a    40.444
_cell_length_b    40.7746
_cell_length_c    41.2128
_cell_angle_alpha 87.1332
_cell_angle_beta  93.8187
_cell_angle_gamma 120.431
_cell_volume      58460.3

_symmetry_cell_setting          triclinic
_symmetry_space_group_name_Hall 'P 1'
_symmetry_space_group_name_H-M  'P 1'
_symmetry_Int_Tables_number     1

_symmetry_equiv_pos_as_xyz 'x,y,z'

loop_
_atom_site_label
_atom_site_type_symbol
_atom_site_fract_x
_atom_site_fract_y
_atom_site_fract_z
_atom_site_charge
C1       C      0.038590000000     0.128790000000     0.003930000000     0.408432   
C2       C      0.939570000000     0.955770000000     0.025470000000     0.427846   
C3       C      0.016420000000     0.029940000000     0.962350000000     0.439763   
C4       C      0.939740000000     0.033890000000     0.079950000000     0.419653   
C5       C      0.030340000000     0.055870000000     0.117490000000     0.423925   
C6       C      0.106930000000     0.057460000000     0.007480000000     0.329882   
C7       C      0.093520000000     0.117360000000     0.068470000000     0.422859   
C8       C      0.001930000000     0.956270000000     0.085930000000     0.334311   
C9       C      0.053780000000     0.060960000000     0.464770000000     0.453318   
C10      C      0.079440000000     0.132100000000     0.560800000000     0.396437   
C11      C      0.970070000000     0.001630000000     0.512190000000     0.324959   
C12      C      0.163210000000     0.141760000000     0.538380000000     0.441435   
C13      C      0.153560000000     0.051250000000     0.559070000000     0.420636   
C14      C      0.004110000000     0.983340000000     0.583640000000     0.418721   
C15      C      0.078460000000     0.992630000000     0.496460000000     0.455292   
C16      C      0.054390000000     0.057550000000     0.621630000000     0.405871   
C17      C      0.923350000000     0.466130000000     0.041910000000     0.41582    
C18      C      0.009470000000     0.621520000000     0.030470000000     0.420457   
C19      C      0.930620000000     0.514890000000     0.102250000000     0.395185   
C20      C      0.032550000000     0.553040000000     0.981140000000     0.460851   
C21      C      0.084360000000     0.534750000000     0.048090000000     0.472855   
C22      C      0.026100000000     0.544030000000     0.136690000000     0.4035     
C23      C      0.993300000000     0.441680000000     0.046420000000     0.333174   
C24      C      0.072490000000     0.631190000000     0.098290000000     0.435388   
C25      C      0.026700000000     0.482000000000     0.528280000000     0.4361     
C26      C      0.125470000000     0.673550000000     0.555730000000     0.359734   
C27      C      0.029240000000     0.582680000000     0.558990000000     0.453059   
C28      C      0.093470000000     0.560660000000     0.482650000000     0.40789    
C29      C      0.181000000000     0.576970000000     0.526380000000     0.412442   
C30      C      0.072320000000     0.570990000000     0.636250000000     0.437696   
C31      C      0.085400000000     0.481130000000     0.597240000000     0.435406   
C32      C      0.181370000000     0.633310000000     0.589140000000     0.420052   
C33      C      0.433420000000     0.014400000000     0.021540000000     0.414162   
C34      C      0.518490000000     0.944160000000     0.014700000000     0.441704   
C35      C      0.535650000000     0.046670000000     0.965080000000     0.433009   
C36      C      0.434780000000     0.958280000000     0.087370000000     0.408195   
C37      C      0.529740000000     0.024940000000     0.123850000000     0.404838   
C38      C      0.589250000000     0.106570000000     0.031050000000     0.449562   
C39      C      0.498790000000     0.108490000000     0.041880000000     0.354932   
C40      C      0.586120000000     0.004450000000     0.077590000000     0.437244   
C41      C      0.499460000000     0.048010000000     0.528620000000     0.431916   
C42      C      0.569750000000     0.982500000000     0.524520000000     0.413725   
C43      C      0.594230000000     0.066510000000     0.469590000000     0.453582   
C44      C      0.527710000000     0.968840000000     0.609640000000     0.368401   
C45      C      0.597960000000     0.066610000000     0.632840000000     0.420908   
C46      C      0.667510000000     0.140420000000     0.521010000000     0.458553   
C47      C      0.570700000000     0.130470000000     0.573950000000     0.432323   
C48      C      0.651230000000     0.026710000000     0.577700000000     0.409728   
C49      C      0.439160000000     0.470210000000     0.031110000000     0.440125   
C50      C      0.517590000000     0.604900000000     0.024770000000     0.401051   
C51      C      0.420360000000     0.508530000000     0.104320000000     0.362594   
C52      C      0.552370000000     0.549030000000     0.990170000000     0.441568   
C53      C      0.599450000000     0.529820000000     0.063500000000     0.451207   
C54      C      0.513560000000     0.541220000000     0.144290000000     0.419435   
C55      C      0.490510000000     0.444270000000     0.089940000000     0.436535   
C56      C      0.578100000000     0.628530000000     0.095720000000     0.399038   
C57      C      0.526740000000     0.478860000000     0.539250000000     0.439675   
C58      C      0.622000000000     0.669960000000     0.563010000000     0.36122    
C59      C      0.529700000000     0.578430000000     0.570590000000     0.452964   
C60      C      0.589530000000     0.557000000000     0.490040000000     0.409586   
C61      C      0.680670000000     0.576640000000     0.529340000000     0.417526   
C62      C      0.579690000000     0.570870000000     0.645530000000     0.439253   
C63      C      0.590790000000     0.480310000000     0.604760000000     0.44036    
C64      C      0.683980000000     0.634620000000     0.592680000000     0.417205   
C65      C      0.578370000000     0.575340000000     0.680710000000    -0.13422    
C66      C      0.556920000000     0.543080000000     0.700420000000     0.0418237  
C67      C      0.555130000000     0.546720000000     0.733610000000    -0.0782414  
C68      C      0.575280000000     0.582590000000     0.747980000000     0.0370771  
C69      C      0.597240000000     0.614920000000     0.728510000000    -0.07704    
C70      C      0.598420000000     0.611370000000     0.695000000000     0.0417988  
C71      C      0.573130000000     0.585500000000     0.783330000000    -0.00202798 
C72      C      0.537190000000     0.568410000000     0.797140000000    -0.0371056  
C73      C      0.534560000000     0.566430000000     0.830820000000    -0.0363251  
C74      C      0.567820000000     0.580900000000     0.851540000000    -0.00262109 
C75      C      0.603920000000     0.599820000000     0.837620000000    -0.0360601  
C76      C      0.606540000000     0.602250000000     0.803750000000    -0.0368702  
C77      C      0.564420000000     0.573590000000     0.887280000000     0.0374676  
C78      C      0.535560000000     0.538250000000     0.899060000000    -0.0792583  
C79      C      0.531890000000     0.530570000000     0.932350000000     0.0429759  
C80      C      0.557240000000     0.557820000000     0.954920000000    -0.141945   
C81      C      0.586440000000     0.593110000000     0.943350000000     0.0421599  
C82      C      0.589980000000     0.600950000000     0.909810000000    -0.07909    
C83      C      0.575460000000     0.550420000000     0.455560000000    -0.125666   
C84      C      0.569170000000     0.577300000000     0.437860000000     0.0355729  
C85      C      0.560190000000     0.573520000000     0.404480000000    -0.0748096  
C86      C      0.556970000000     0.542610000000     0.387960000000     0.034674   
C87      C      0.561660000000     0.514850000000     0.405900000000    -0.0752056  
C88      C      0.570820000000     0.518720000000     0.439340000000     0.0354663  
C89      C      0.550450000000     0.540440000000     0.352000000000    -0.00150234 
C90      C      0.525790000000     0.551700000000     0.336220000000    -0.0366704  
C91      C      0.521680000000     0.552160000000     0.302330000000    -0.0367516  
C92      C      0.541920000000     0.541120000000     0.283400000000    -0.00132552 
C93      C      0.565860000000     0.528970000000     0.299100000000    -0.0368438  
C94      C      0.570200000000     0.528760000000     0.333040000000    -0.0364408  
C95      C      0.537910000000     0.542390000000     0.247410000000     0.0354433  
C96      C      0.538570000000     0.573910000000     0.231320000000    -0.0752005  
C97      C      0.532310000000     0.574200000000     0.197610000000     0.0369824  
C98      C      0.524960000000     0.542850000000     0.179280000000    -0.125216   
C99      C      0.525660000000     0.511880000000     0.195230000000     0.0385233  
C100     C      0.532210000000     0.511720000000     0.228970000000    -0.0746788  
C101     C      0.614800000000     0.701450000000     0.554610000000    -0.101207   
C102     C      0.624840000000     0.720160000000     0.524230000000     0.02458    
C103     C      0.615210000000     0.747800000000     0.514920000000    -0.070356   
C104     C      0.594690000000     0.756630000000     0.535550000000     0.0299072  
C105     C      0.584720000000     0.738030000000     0.565980000000    -0.0704263  
C106     C      0.595010000000     0.710910000000     0.575570000000     0.0245227  
C107     C      0.584430000000     0.785830000000     0.525680000000    -0.000211413
C108     C      0.612780000000     0.821950000000     0.515150000000    -0.0382799  
C109     C      0.603950000000     0.850550000000     0.508120000000    -0.036072   
C110     C      0.566350000000     0.843500000000     0.510920000000    -0.00201052 
C111     C      0.537630000000     0.806690000000     0.520150000000    -0.0366368  
C112     C      0.546670000000     0.778240000000     0.527730000000    -0.0383604  
C113     C      0.558570000000     0.875570000000     0.507690000000     0.0347481  
C114     C      0.579280000000     0.906430000000     0.486300000000    -0.0749433  
C115     C      0.579650000000     0.940580000000     0.489280000000     0.0361506  
C116     C      0.558790000000     0.944290000000     0.513320000000    -0.12317    
C117     C      0.534040000000     0.911940000000     0.531620000000     0.0389307  
C118     C      0.534250000000     0.878030000000     0.529110000000    -0.07434    
C119     C      0.589660000000     0.444940000000     0.616970000000    -0.139556   
C120     C      0.621760000000     0.440630000000     0.614560000000     0.0390157  
C121     C      0.618760000000     0.405170000000     0.620080000000    -0.0785028  
C122     C      0.583630000000     0.373160000000     0.628330000000     0.036056   
C123     C      0.552270000000     0.378070000000     0.632990000000    -0.0791121  
C124     C      0.555250000000     0.413580000000     0.627370000000     0.0411169  
C125     C      0.578980000000     0.334490000000     0.628730000000    -0.00281842 
C126     C      0.609130000000     0.328610000000     0.640330000000    -0.0370392  
C127     C      0.606950000000     0.293770000000     0.636020000000    -0.0373899  
C128     C      0.574490000000     0.263920000000     0.620230000000    -0.00265254 
C129     C      0.543430000000     0.269000000000     0.610350000000    -0.0373264  
C130     C      0.545680000000     0.303900000000     0.614460000000    -0.0369094  
C131     C      0.574360000000     0.229000000000     0.611330000000     0.035331   
C132     C      0.606610000000     0.232030000000     0.597420000000    -0.0782228  
C133     C      0.605560000000     0.199880000000     0.585910000000     0.0384709  
C134     C      0.572330000000     0.163880000000     0.588240000000    -0.138196   
C135     C      0.540500000000     0.160560000000     0.603220000000     0.0384183  
C136     C      0.541430000000     0.192860000000     0.614470000000    -0.0788192  
C137     C      0.612550000000     0.080930000000     0.665960000000    -0.128663   
C138     C      0.608960000000     0.111070000000     0.676770000000     0.03875    
C139     C      0.610390000000     0.117290000000     0.709980000000    -0.0750512  
C140     C      0.614870000000     0.093130000000     0.733110000000     0.0348314  
C141     C      0.622240000000     0.065340000000     0.722130000000    -0.0737758  
C142     C      0.621320000000     0.059450000000     0.688810000000     0.0372291  
C143     C      0.607130000000     0.093660000000     0.767920000000    -0.00116209 
C144     C      0.577030000000     0.099210000000     0.776130000000    -0.0362955  
C145     C      0.566090000000     0.094670000000     0.808280000000    -0.0365895  
C146     C      0.584720000000     0.084110000000     0.832920000000    -0.00189381 
C147     C      0.615920000000     0.080290000000     0.825070000000    -0.0368535  
C148     C      0.627080000000     0.085130000000     0.792980000000    -0.0369225  
C149     C      0.569970000000     0.074180000000     0.866160000000     0.0353267  
C150     C      0.560450000000     0.097480000000     0.882650000000    -0.0759971  
C151     C      0.547790000000     0.088070000000     0.914500000000     0.0372913  
C152     C      0.544090000000     0.055000000000     0.930170000000    -0.132351   
C153     C      0.552100000000     0.031060000000     0.912970000000     0.0377624  
C154     C      0.564990000000     0.040600000000     0.881500000000    -0.0772346  
C155     C      0.544340000000     0.031300000000     0.158260000000    -0.12366    
C156     C      0.554400000000     0.006470000000     0.174970000000     0.0334855  
C157     C      0.565020000000     0.010860000000     0.208240000000    -0.0741328  
C158     C      0.565320000000     0.039890000000     0.225670000000     0.0335644  
C159     C      0.555960000000     0.065120000000     0.208590000000    -0.0743434  
C160     C      0.546000000000     0.061100000000     0.175340000000     0.0349532  
C161     C      0.573600000000     0.043110000000     0.261660000000    -0.00127362 
C162     C      0.561760000000     0.010420000000     0.281760000000    -0.0370805  
C163     C      0.566710000000     0.013400000000     0.315670000000    -0.0367789  
C164     C      0.582940000000     0.049020000000     0.330220000000    -0.0034557  
C165     C      0.595720000000     0.081740000000     0.310330000000    -0.0367789  
C166     C      0.591530000000     0.078890000000     0.276490000000    -0.0372057  
C167     C      0.584990000000     0.052150000000     0.366030000000     0.038518   
C168     C      0.604180000000     0.037670000000     0.386220000000    -0.081437   
C169     C      0.607150000000     0.042170000000     0.419970000000     0.0447027  
C170     C      0.590150000000     0.060400000000     0.434100000000    -0.147753   
C171     C      0.570080000000     0.073920000000     0.413860000000     0.0460955  
C172     C      0.567900000000     0.070200000000     0.380160000000    -0.0815447  
C173     C      0.515800000000     0.909760000000     0.001260000000    -0.139963   
C174     C      0.482490000000     0.873900000000     0.004310000000     0.0396178  
C175     C      0.482040000000     0.840940000000     0.995540000000    -0.0783275  
C176     C      0.514890000000     0.843140000000     0.983570000000     0.0364689  
C177     C      0.547440000000     0.879160000000     0.978860000000    -0.0794978  
C178     C      0.547870000000     0.912070000000     0.987540000000     0.0417365  
C179     C      0.516420000000     0.807970000000     0.978970000000    -0.00261475 
C180     C      0.484860000000     0.775490000000     0.965100000000    -0.0367478  
C181     C      0.485040000000     0.741270000000     0.964290000000    -0.037321   
C182     C      0.516650000000     0.738700000000     0.977590000000    -0.00112302 
C183     C      0.548810000000     0.771730000000     0.990190000000    -0.0368814  
C184     C      0.548720000000     0.805890000000     0.990780000000    -0.0366458  
C185     C      0.514750000000     0.701240000000     0.981930000000     0.0330383  
C186     C      0.480680000000     0.668860000000     0.991620000000    -0.0729775  
C187     C      0.480730000000     0.635900000000     0.002580000000     0.0322355  
C188     C      0.514920000000     0.634630000000     0.004430000000    -0.120211   
C189     C      0.548060000000     0.665570000000     0.991700000000     0.032805   
C190     C      0.547950000000     0.698490000000     0.980530000000    -0.0741316  
C191     C      0.497480000000     0.143340000000     0.046500000000    -0.098847   
C192     C      0.517450000000     0.166440000000     0.073210000000     0.0239091  
C193     C      0.512600000000     0.196850000000     0.080120000000    -0.0687934  
C194     C      0.486820000000     0.204230000000     0.061000000000     0.0294396  
C195     C      0.467520000000     0.181420000000     0.033750000000    -0.0680146  
C196     C      0.473140000000     0.151530000000     0.026390000000     0.0234792  
C197     C      0.479990000000     0.235340000000     0.069690000000     0.000220129
C198     C      0.481810000000     0.244770000000     0.102480000000    -0.0378144  
C199     C      0.477930000000     0.275490000000     0.110540000000    -0.0368232  
C200     C      0.471080000000     0.296760000000     0.086100000000    -0.0031704  
C201     C      0.467590000000     0.286560000000     0.053520000000    -0.0365542  
C202     C      0.472320000000     0.256400000000     0.045350000000    -0.0378723  
C203     C      0.472000000000     0.332140000000     0.093900000000     0.0364448  
C204     C      0.505510000000     0.361850000000     0.108520000000    -0.0787692  
C205     C      0.510230000000     0.398110000000     0.109750000000     0.0405429  
C206     C      0.481120000000     0.404940000000     0.097130000000    -0.137818   
C207     C      0.446220000000     0.374480000000     0.085150000000     0.0404293  
C208     C      0.441890000000     0.338350000000     0.083110000000    -0.0788808  
C209     C      0.992520000000     0.448640000000     0.513860000000    -0.142685   
C210     C      0.989140000000     0.412600000000     0.515750000000     0.0394272  
C211     C      0.953740000000     0.379980000000     0.508600000000    -0.0791534  
C212     C      0.921170000000     0.382860000000     0.499040000000     0.0357464  
C213     C      0.925560000000     0.419260000000     0.494700000000    -0.079128   
C214     C      0.960750000000     0.451740000000     0.502250000000     0.0402376  
C215     C      0.882310000000     0.348200000000     0.496580000000    -0.00266756 
C216     C      0.877010000000     0.314080000000     0.484610000000    -0.0372265  
C217     C      0.841220000000     0.280690000000     0.485610000000    -0.0369199  
C218     C      0.809850000000     0.280690000000     0.498430000000    -0.00328556 
C219     C      0.814680000000     0.315040000000     0.509170000000    -0.0366184  
C220     C      0.850480000000     0.348350000000     0.508390000000    -0.0368892  
C221     C      0.773060000000     0.244560000000     0.502820000000     0.0383135  
C222     C      0.773420000000     0.212320000000     0.516020000000    -0.0812611  
C223     C      0.739140000000     0.178740000000     0.521920000000     0.0457557  
C224     C      0.703540000000     0.176410000000     0.514550000000    -0.147565   
C225     C      0.703060000000     0.208490000000     0.500980000000     0.0449984  
C226     C      0.737530000000     0.242350000000     0.495360000000    -0.0812436  
C227     C      0.218640000000     0.654920000000     0.606850000000    -0.127138   
C228     C      0.250670000000     0.654370000000     0.596550000000     0.0390853  
C229     C      0.287670000000     0.682220000000     0.606810000000    -0.0742454  
C230     C      0.293390000000     0.712190000000     0.626440000000     0.0350348  
C231     C      0.260930000000     0.710680000000     0.638770000000    -0.0738708  
C232     C      0.223910000000     0.682010000000     0.629350000000     0.0379121  
C233     C      0.332130000000     0.747070000000     0.630360000000    -0.00160211 
C234     C      0.357850000000     0.759360000000     0.605020000000    -0.0356424  
C235     C      0.391910000000     0.794360000000     0.606340000000    -0.0379029  
C236     C      0.400810000000     0.818410000000     0.632630000000    -3.35854e-05
C237     C      0.376080000000     0.806090000000     0.658480000000    -0.0382127  
C238     C      0.342340000000     0.770520000000     0.657590000000    -0.0359567  
C239     C      0.434440000000     0.857270000000     0.631480000000     0.0308994  
C240     C      0.470810000000     0.862830000000     0.626040000000    -0.0710779  
C241     C      0.501610000000     0.899410000000     0.620590000000     0.0247873  
C242     C      0.496350000000     0.931020000000     0.619680000000    -0.103258   
C243     C      0.460190000000     0.925530000000     0.626160000000     0.02616    
C244     C      0.429550000000     0.888950000000     0.632320000000    -0.0703567  
C245     C      0.996920000000     0.587540000000     0.546330000000    -0.142161   
C246     C      0.959210000000     0.557120000000     0.549100000000     0.0461577  
C247     C      0.928110000000     0.560900000000     0.537780000000    -0.0808113  
C248     C      0.933800000000     0.595260000000     0.523470000000     0.0382842  
C249     C      0.971520000000     0.625840000000     0.520520000000    -0.0793454  
C250     C      0.002910000000     0.621900000000     0.531620000000     0.0450157  
C251     C      0.899870000000     0.598920000000     0.513500000000    -0.00304134 
C252     C      0.867700000000     0.568650000000     0.497820000000    -0.0369266  
C253     C      0.832760000000     0.567820000000     0.494760000000    -0.0374238  
C254     C      0.829350000000     0.597390000000     0.507060000000    -0.00283451 
C255     C      0.862270000000     0.629340000000     0.520050000000    -0.0365866  
C256     C      0.897340000000     0.630090000000     0.523290000000    -0.0365141  
C257     C      0.790800000000     0.592090000000     0.510660000000     0.0362973  
C258     C      0.763130000000     0.558930000000     0.526270000000    -0.0791575  
C259     C      0.727340000000     0.554030000000     0.531920000000     0.0395174  
C260     C      0.718120000000     0.581870000000     0.521620000000    -0.137629   
C261     C      0.745410000000     0.614800000000     0.505370000000     0.0394291  
C262     C      0.781770000000     0.620120000000     0.500300000000    -0.0791895  
C263     C      0.218150000000     0.580130000000     0.520940000000    -0.136343   
C264     C      0.225750000000     0.552270000000     0.534580000000     0.0377859  
C265     C      0.261250000000     0.555360000000     0.531420000000    -0.0785322  
C266     C      0.290220000000     0.586640000000     0.514890000000     0.0356085  
C267     C      0.282750000000     0.614610000000     0.501060000000    -0.0785824  
C268     C      0.246720000000     0.611140000000     0.503750000000     0.0384278  
C269     C      0.328410000000     0.590210000000     0.513900000000    -0.00250923 
C270     C      0.331040000000     0.558450000000     0.506310000000    -0.0374378  
C271     C      0.365590000000     0.558800000000     0.511640000000    -0.0366879  
C272     C      0.398240000000     0.590890000000     0.524760000000    -0.00315345 
C273     C      0.396450000000     0.623760000000     0.529970000000    -0.036452   
C274     C      0.361720000000     0.623430000000     0.524550000000    -0.0370549  
C275     C      0.432460000000     0.588360000000     0.536030000000     0.0381127  
C276     C      0.427590000000     0.556150000000     0.554040000000    -0.0807878  
C277     C      0.459240000000     0.553300000000     0.565450000000     0.0456251  
C278     C      0.496590000000     0.582500000000     0.559020000000    -0.142052   
C279     C      0.501650000000     0.614870000000     0.541050000000     0.0439905  
C280     C      0.469810000000     0.617900000000     0.529850000000    -0.0790879  
C281     C      0.035270000000     0.558480000000     0.945390000000    -0.144948   
C282     C      0.014760000000     0.527320000000     0.924720000000     0.0458991  
C283     C      0.017910000000     0.532220000000     0.891060000000    -0.0790549  
C284     C      0.041420000000     0.568450000000     0.877140000000     0.03835    
C285     C      0.061680000000     0.599690000000     0.897810000000    -0.0797638  
C286     C      0.058710000000     0.594750000000     0.931540000000     0.0447303  
C287     C      0.045240000000     0.573250000000     0.841260000000    -0.00260966 
C288     C      0.013360000000     0.551860000000     0.819990000000    -0.0357981  
C289     C      0.017430000000     0.553970000000     0.786450000000    -0.0367459  
C290     C      0.053380000000     0.577770000000     0.773290000000    -0.00164934 
C291     C      0.084970000000     0.600430000000     0.794300000000    -0.0366708  
C292     C      0.080990000000     0.598090000000     0.827950000000    -0.0357983  
C293     C      0.058210000000     0.576820000000     0.738050000000     0.036628   
C294     C      0.042730000000     0.541650000000     0.722850000000    -0.0774705  
C295     C      0.047550000000     0.540030000000     0.689920000000     0.0406856  
C296     C      0.067670000000     0.573550000000     0.671200000000    -0.133017   
C297     C      0.083070000000     0.608870000000     0.686290000000     0.0405898  
C298     C      0.078640000000     0.610480000000     0.719540000000    -0.0762122  
C299     C      0.041220000000     0.549700000000     0.170870000000    -0.123046   
C300     C      0.051700000000     0.524560000000     0.186390000000     0.0341546  
C301     C      0.060400000000     0.526480000000     0.219860000000    -0.0750662  
C302     C      0.059050000000     0.553710000000     0.238440000000     0.0342836  
C303     C      0.050710000000     0.580200000000     0.222610000000    -0.0752399  
C304     C      0.041920000000     0.578230000000     0.189190000000     0.0345648  
C305     C      0.064000000000     0.553170000000     0.274410000000    -0.00167512 
C306     C      0.046220000000     0.518520000000     0.292020000000    -0.0368546  
C307     C      0.048820000000     0.518040000000     0.325990000000    -0.0370551  
C308     C      0.069210000000     0.552200000000     0.343060000000    -0.00164228 
C309     C      0.087500000000     0.586810000000     0.325440000000    -0.0368865  
C310     C      0.084890000000     0.587290000000     0.291490000000    -0.037138   
C311     C      0.071750000000     0.551940000000     0.379140000000     0.0346096  
C312     C      0.078410000000     0.525250000000     0.396750000000    -0.0754148  
C313     C      0.083730000000     0.526960000000     0.430610000000     0.0355164  
C314     C      0.082600000000     0.555460000000     0.447510000000    -0.125489   
C315     C      0.074100000000     0.580980000000     0.430000000000     0.0348976  
C316     C      0.068770000000     0.579250000000     0.396190000000    -0.0751605  
C317     C      0.620110000000     0.146790000000     0.027630000000    -0.139559   
C318     C      0.645020000000     0.157800000000     0.001930000000     0.0434591  
C319     C      0.673520000000     0.195750000000     0.997510000000    -0.0783558  
C320     C      0.678620000000     0.223790000000     0.019120000000     0.0368069  
C321     C      0.653470000000     0.212660000000     0.044860000000    -0.0770006  
C322     C      0.624270000000     0.174680000000     0.048830000000     0.0425329  
C323     C      0.710760000000     0.264010000000     0.015380000000    -0.00236646 
C324     C      0.745900000000     0.271920000000     0.003190000000    -0.0358573  
C325     C      0.776910000000     0.309170000000     0.001710000000    -0.0372102  
C326     C      0.773930000000     0.339430000000     0.012920000000    -0.001195   
C327     C      0.738690000000     0.332010000000     0.024130000000    -0.0378708  
C328     C      0.707340000000     0.294810000000     0.025010000000    -0.0361078  
C329     C      0.809090000000     0.377020000000     0.017900000000     0.0337126  
C330     C      0.834800000000     0.395950000000     0.992940000000    -0.0743973  
C331     C      0.871200000000     0.427740000000     0.999880000000     0.0355031  
C332     C      0.882640000000     0.440090000000     0.032040000000    -0.124358   
C333     C      0.856180000000     0.421910000000     0.056510000000     0.0355319  
C334     C      0.819640000000     0.391330000000     0.049430000000    -0.0747295  
C335     C      0.394360000000     0.930210000000     0.094140000000    -0.130437   
C336     C      0.378400000000     0.930230000000     0.123420000000     0.0329955  
C337     C      0.340330000000     0.902620000000     0.129570000000    -0.0760547  
C338     C      0.317420000000     0.875130000000     0.106230000000     0.0330869  
C339     C      0.333280000000     0.875610000000     0.076810000000    -0.0761954  
C340     C      0.371330000000     0.902550000000     0.070960000000     0.0320688  
C341     C      0.277590000000     0.844680000000     0.112580000000    -0.00198656 
C342     C      0.269760000000     0.821810000000     0.140910000000    -0.0375975  
C343     C      0.233660000000     0.789170000000     0.144280000000    -0.037042   
C344     C      0.204600000000     0.779120000000     0.119580000000    -0.00324378 
C345     C      0.211770000000     0.803450000000     0.092260000000    -0.0366796  
C346     C      0.247930000000     0.835750000000     0.088720000000    -0.0380382  
C347     C      0.168800000000     0.741350000000     0.120100000000     0.0354279  
C348     C      0.133030000000     0.737430000000     0.110100000000    -0.079777   
C349     C      0.100680000000     0.701300000000     0.105350000000     0.0384235  
C350     C      0.103730000000     0.668520000000     0.109930000000    -0.144566   
C351     C      0.138900000000     0.672390000000     0.121770000000     0.0388437  
C352     C      0.171010000000     0.708390000000     0.126990000000    -0.078938   
C353     C      0.889680000000     0.501040000000     0.106980000000    -0.12823    
C354     C      0.867330000000     0.503250000000     0.080290000000     0.0316796  
C355     C      0.829380000000     0.492950000000     0.083510000000    -0.0752517  
C356     C      0.812630000000     0.480820000000     0.113690000000     0.0322283  
C357     C      0.834570000000     0.478150000000     0.140610000000    -0.0751058  
C358     C      0.872860000000     0.487720000000     0.137160000000     0.0287493  
C359     C      0.773660000000     0.474940000000     0.116470000000    -0.00156689 
C360     C      0.767260000000     0.495580000000     0.139010000000    -0.0377071  
C361     C      0.734790000000     0.499550000000     0.135140000000    -0.0363738  
C362     C      0.708330000000     0.483130000000     0.108530000000    -0.00333612 
C363     C      0.713030000000     0.459370000000     0.088020000000    -0.0361453  
C364     C      0.745180000000     0.455140000000     0.092100000000    -0.0382521  
C365     C      0.678740000000     0.494030000000     0.099800000000     0.0379558  
C366     C      0.687160000000     0.531620000000     0.103980000000    -0.0795942  
C367     C      0.661300000000     0.543200000000     0.092480000000     0.0451081  
C368     C      0.626740000000     0.517680000000     0.075990000000    -0.143366   
C369     C      0.617800000000     0.479940000000     0.072380000000     0.0460112  
C370     C      0.643320000000     0.468150000000     0.084410000000    -0.0807501  
C371     C      0.114890000000     0.524970000000     0.053970000000    -0.150021   
C372     C      0.109610000000     0.489880000000     0.044520000000     0.0463183  
C373     C      0.138810000000     0.481090000000     0.050670000000    -0.0816626  
C374     C      0.174010000000     0.507750000000     0.065610000000     0.0395029  
C375     C      0.179290000000     0.542770000000     0.074920000000    -0.082501   
C376     C      0.150050000000     0.551230000000     0.069320000000     0.0485374  
C377     C      0.206470000000     0.500750000000     0.070170000000    -0.00420889 
C378     C      0.204040000000     0.470570000000     0.089940000000    -0.0359171  
C379     C      0.237020000000     0.468040000000     0.097830000000    -0.038418   
C380     C      0.272640000000     0.495620000000     0.085890000000     2.15536e-05
C381     C      0.274090000000     0.524150000000     0.064350000000    -0.0380467  
C382     C      0.241510000000     0.526850000000     0.056810000000    -0.0360043  
C383     C      0.308970000000     0.496650000000     0.096630000000     0.0301995  
C384     C      0.312090000000     0.463730000000     0.098140000000    -0.0697336  
C385     C      0.348210000000     0.466740000000     0.103530000000     0.0225001  
C386     C      0.381480000000     0.502730000000     0.106780000000    -0.100818   
C387     C      0.377670000000     0.534960000000     0.108150000000     0.0266755  
C388     C      0.341900000000     0.531930000000     0.103420000000    -0.0700051  
C389     C      0.721980000000     0.658810000000     0.608590000000    -0.126195   
C390     C      0.754570000000     0.661220000000     0.596170000000     0.0380612  
C391     C      0.791140000000     0.691310000000     0.604700000000    -0.0738637  
C392     C      0.795720000000     0.720580000000     0.624670000000     0.0345868  
C393     C      0.763050000000     0.716140000000     0.639180000000    -0.0734755  
C394     C      0.726590000000     0.685280000000     0.631500000000     0.0372321  
C395     C      0.832910000000     0.757540000000     0.626610000000    -0.00131494 
C396     C      0.856280000000     0.771130000000     0.599620000000    -0.0357403  
C397     C      0.888320000000     0.807630000000     0.599160000000    -0.0372224  
C398     C      0.897630000000     0.831980000000     0.625350000000    -0.00103936 
C399     C      0.875280000000     0.818440000000     0.652800000000    -0.0377298  
C400     C      0.843540000000     0.781420000000     0.653610000000    -0.0362475  
C401     C      0.928520000000     0.872220000000     0.622120000000     0.0344938  
C402     C      0.964050000000     0.881030000000     0.610610000000    -0.0747101  
C403     C      0.990110000000     0.918080000000     0.600560000000     0.0383813  
C404     C      0.980930000000     0.946990000000     0.601430000000    -0.124493   
C405     C      0.946750000000     0.938840000000     0.615430000000     0.0347409  
C406     C      0.920780000000     0.901730000000     0.625800000000    -0.0746116  
C407     C      0.199690000000     0.177640000000     0.533080000000    -0.147124   
C408     C      0.207690000000     0.195810000000     0.502340000000     0.0409921  
C409     C      0.243700000000     0.227730000000     0.496870000000    -0.0800295  
C410     C      0.272380000000     0.242200000000     0.522060000000     0.0367632  
C411     C      0.263820000000     0.224630000000     0.553030000000    -0.0810446  
C412     C      0.228000000000     0.192710000000     0.558440000000     0.0419679  
C413     C      0.311140000000     0.275470000000     0.516380000000    -0.00312334 
C414     C      0.344080000000     0.276780000000     0.531290000000    -0.0370141  
C415     C      0.380200000000     0.309290000000     0.528500000000    -0.0370567  
C416     C      0.384380000000     0.341290000000     0.510520000000    -0.00273213 
C417     C      0.351710000000     0.339250000000     0.494200000000    -0.0371276  
C418     C      0.315500000000     0.306760000000     0.497150000000    -0.0368662  
C419     C      0.421780000000     0.377710000000     0.511810000000     0.0360564  
C420     C      0.456860000000     0.378100000000     0.512710000000    -0.0793902  
C421     C      0.491600000000     0.411630000000     0.519530000000     0.0404353  
C422     C      0.491860000000     0.445360000000     0.525630000000    -0.143144   
C423     C      0.457120000000     0.445540000000     0.522340000000     0.0404046  
C424     C      0.422540000000     0.412150000000     0.515610000000    -0.0791413  
C425     C      0.929370000000     0.989480000000     0.504370000000    -0.0845967  
C426     C      0.900040000000     0.954690000000     0.516520000000     0.0155086  
C427     C      0.862700000000     0.948400000000     0.517980000000    -0.0646904  
C428     C      0.854120000000     0.976720000000     0.507160000000     0.0264391  
C429     C      0.882890000000     0.009950000000     0.492290000000    -0.0648984  
C430     C      0.920000000000     0.016210000000     0.490920000000     0.0154684  
C431     C      0.817510000000     0.974460000000     0.514940000000     0.00108768 
C432     C      0.800910000000     0.990870000000     0.493730000000    -0.0386067  
C433     C      0.771600000000     0.996050000000     0.503820000000    -0.036886   
C434     C      0.757710000000     0.984350000000     0.535120000000    -0.00295061 
C435     C      0.772030000000     0.965270000000     0.555450000000    -0.0364711  
C436     C      0.801800000000     0.960550000000     0.545540000000    -0.0379177  
C437     C      0.730760000000     0.994930000000     0.547330000000     0.0346693  
C438     C      0.739300000000     0.032880000000     0.544600000000    -0.0775789  
C439     C      0.714220000000     0.043430000000     0.555740000000     0.0310421  
C440     C      0.679700000000     0.016140000000     0.569470000000    -0.13218    
C441     C      0.671430000000     0.978210000000     0.572720000000     0.0377956  
C442     C      0.696910000000     0.967760000000     0.561980000000    -0.0767843  
C443     C      0.186190000000     0.045160000000     0.565230000000    -0.132066   
C444     C      0.181320000000     0.008540000000     0.566550000000     0.0354242  
C445     C      0.213330000000     0.003860000000     0.565540000000    -0.0759976  
C446     C      0.250530000000     0.035810000000     0.563310000000     0.034526   
C447     C      0.254980000000     0.072340000000     0.563160000000    -0.0767299  
C448     C      0.223220000000     0.076910000000     0.564020000000     0.0389215  
C449     C      0.284630000000     0.031880000000     0.559010000000    -0.00241105 
C450     C      0.282510000000     0.004370000000     0.538270000000    -0.036604   
C451     C      0.315850000000     0.004340000000     0.530930000000    -0.0376589  
C452     C      0.351870000000     0.032090000000     0.543860000000    -0.00233549 
C453     C      0.353760000000     0.058430000000     0.565630000000    -0.0374202  
C454     C      0.320560000000     0.058140000000     0.573320000000    -0.0369761  
C455     C      0.387800000000     0.034360000000     0.534710000000     0.0356059  
C456     C      0.392480000000     0.002510000000     0.538050000000    -0.0775568  
C457     C      0.428390000000     0.006360000000     0.533970000000     0.0369308  
C458     C      0.460060000000     0.042030000000     0.526050000000    -0.136141   
C459     C      0.454460000000     0.073190000000     0.520340000000     0.0400273  
C460     C      0.418780000000     0.069440000000     0.524880000000    -0.0787382  
C461     C      0.087280000000     0.962960000000     0.489190000000    -0.144941   
C462     C      0.057580000000     0.924850000000     0.487880000000     0.0470162  
C463     C      0.065940000000     0.895570000000     0.488950000000    -0.0797524  
C464     C      0.104190000000     0.903810000000     0.491790000000     0.0381821  
C465     C      0.133970000000     0.942010000000     0.491150000000    -0.0802873  
C466     C      0.125570000000     0.971400000000     0.489550000000     0.0431262  
C467     C      0.112440000000     0.872550000000     0.498520000000    -0.00378051 
C468     C      0.138480000000     0.875360000000     0.524110000000    -0.0353559  
C469     C      0.142690000000     0.844130000000     0.533220000000    -0.0386885  
C470     C      0.121190000000     0.809630000000     0.516730000000     0.000283415
C471     C      0.096100000000     0.807290000000     0.490460000000    -0.0383595  
C472     C      0.091710000000     0.838390000000     0.481500000000    -0.0361123  
C473     C      0.124080000000     0.775800000000     0.527180000000     0.0294306  
C474     C      0.123790000000     0.765450000000     0.560290000000    -0.0689554  
C475     C      0.124480000000     0.732350000000     0.569820000000     0.0227885  
C476     C      0.125670000000     0.709150000000     0.546380000000    -0.100235   
C477     C      0.126630000000     0.719960000000     0.513360000000     0.0233084  
C478     C      0.125780000000     0.752830000000     0.503880000000    -0.0699304  
C479     C      0.083250000000     0.169930000000     0.563640000000    -0.118087   
C480     C      0.115360000000     0.199480000000     0.580040000000     0.0330323  
C481     C      0.116740000000     0.233770000000     0.585600000000    -0.0733829  
C482     C      0.085840000000     0.239050000000     0.575170000000     0.0334306  
C483     C      0.054190000000     0.209660000000     0.558140000000    -0.073822   
C484     C      0.053060000000     0.175740000000     0.552210000000     0.0336104  
C485     C      0.085880000000     0.274490000000     0.582570000000    -0.00129268 
C486     C      0.101930000000     0.293140000000     0.612280000000    -0.037028   
C487     C      0.100640000000     0.325660000000     0.619480000000    -0.0371166  
C488     C      0.082700000000     0.339770000000     0.597370000000    -0.00291779 
C489     C      0.066830000000     0.321350000000     0.567710000000    -0.0370137  
C490     C      0.068670000000     0.289330000000     0.560280000000    -0.0373908  
C491     C      0.081930000000     0.374700000000     0.604100000000     0.0359802  
C492     C      0.116100000000     0.408290000000     0.612440000000    -0.0787245  
C493     C      0.116680000000     0.442840000000     0.612780000000     0.0380784  
C494     C      0.082990000000     0.444270000000     0.605230000000    -0.139659   
C495     C      0.048200000000     0.410100000000     0.599710000000     0.040307   
C496     C      0.047760000000     0.375670000000     0.598860000000    -0.0798552  
C497     C      0.041690000000     0.047590000000     0.655270000000    -0.131977   
C498     C      0.061170000000     0.036240000000     0.678400000000     0.0354554  
C499     C      0.050300000000     0.028810000000     0.710630000000    -0.0758631  
C500     C      0.019410000000     0.032130000000     0.720320000000     0.0353623  
C501     C      0.999110000000     0.042190000000     0.696800000000    -0.0776994  
C502     C      0.010260000000     0.050020000000     0.664690000000     0.038486   
C503     C      0.009840000000     0.027220000000     0.755100000000    -0.00165251 
C504     C      0.012800000000     0.999730000000     0.775030000000    -0.0368359  
C505     C      0.007560000000     0.997760000000     0.808380000000    -0.0358205  
C506     C      0.998940000000     0.023060000000     0.822570000000    -0.00222552 
C507     C      0.994130000000     0.049300000000     0.802370000000    -0.0364812  
C508     C      0.999690000000     0.051480000000     0.769080000000    -0.0369241  
C509     C      0.998330000000     0.024210000000     0.858510000000     0.0364531  
C510     C      0.983500000000     0.990620000000     0.877630000000    -0.0769701  
C511     C      0.987660000000     0.992300000000     0.911550000000     0.0403755  
C512     C      0.006580000000     0.027600000000     0.927040000000    -0.137236   
C513     C      0.019360000000     0.061030000000     0.908020000000     0.0425602  
C514     C      0.015430000000     0.059370000000     0.874160000000    -0.0768389  
C515     C      0.043020000000     0.061870000000     0.429900000000    -0.143113   
C516     C      0.061540000000     0.095970000000     0.411630000000     0.0427564  
C517     C      0.057550000000     0.095580000000     0.377680000000    -0.0795515  
C518     C      0.035520000000     0.061030000000     0.361420000000     0.0372548  
C519     C      0.015290000000     0.027230000000     0.379660000000    -0.0789502  
C520     C      0.018660000000     0.027680000000     0.413630000000     0.0425712  
C521     C      0.036140000000     0.059960000000     0.325640000000    -0.00239266 
C522     C      0.028370000000     0.084160000000     0.305410000000    -0.0371462  
C523     C      0.030290000000     0.083880000000     0.271700000000    -0.0362004  
C524     C      0.040860000000     0.059960000000     0.257490000000    -0.00168761 
C525     C      0.048800000000     0.035890000000     0.277990000000    -0.0362601  
C526     C      0.046160000000     0.035680000000     0.311650000000    -0.0366806  
C527     C      0.042770000000     0.059710000000     0.221470000000     0.0361868  
C528     C      0.053980000000     0.093180000000     0.202680000000    -0.0764032  
C529     C      0.051800000000     0.092200000000     0.168770000000     0.0394848  
C530     C      0.039260000000     0.057970000000     0.152830000000    -0.131168   
C531     C      0.030460000000     0.024980000000     0.171360000000     0.0415307  
C532     C      0.031850000000     0.025740000000     0.205340000000    -0.0755419  
C533     C      0.614110000000     0.664310000000     0.088630000000    -0.138695   
C534     C      0.613720000000     0.697660000000     0.078820000000     0.036848   
C535     C      0.647360000000     0.730150000000     0.069060000000    -0.0782804  
C536     C      0.681870000000     0.729720000000     0.068610000000     0.0334235  
C537     C      0.682420000000     0.696720000000     0.079150000000    -0.0774702  
C538     C      0.649020000000     0.664490000000     0.089250000000     0.0265228  
C539     C      0.717330000000     0.763380000000     0.057070000000    -0.00217387 
C540     C      0.729590000000     0.799680000000     0.068840000000    -0.037601   
C541     C      0.764330000000     0.830940000000     0.059530000000    -0.0364658  
C542     C      0.787380000000     0.826710000000     0.037830000000    -0.00217088 
C543     C      0.774330000000     0.790460000000     0.025290000000    -0.0370258  
C544     C      0.739830000000     0.759150000000     0.034950000000    -0.0378015  
C545     C      0.825680000000     0.859550000000     0.029780000000     0.0351377  
C546     C      0.831710000000     0.896720000000     0.027350000000    -0.0758429  
C547     C      0.868570000000     0.927950000000     0.023940000000     0.0391097  
C548     C      0.900220000000     0.922760000000     0.022370000000    -0.131546   
C549     C      0.894020000000     0.885610000000     0.022640000000     0.0374717  
C550     C      0.857190000000     0.854350000000     0.026520000000    -0.0760435  
C551     C      0.400200000000     0.437540000000     0.023690000000    -0.133431   
C552     C      0.367410000000     0.437440000000     0.033130000000     0.0411295  
C553     C      0.332500000000     0.403180000000     0.035530000000    -0.0766142  
C554     C      0.329640000000     0.368540000000     0.027940000000     0.0367078  
C555     C      0.361330000000     0.369310000000     0.015100000000    -0.0785068  
C556     C      0.396160000000     0.403430000000     0.012880000000     0.0407019  
C557     C      0.295320000000     0.331510000000     0.036200000000    -0.00237241 
C558     C      0.278930000000     0.326020000000     0.066470000000    -0.0363907  
C559     C      0.248660000000     0.290390000000     0.075560000000    -0.0371913  
C560     C      0.233910000000     0.259390000000     0.054560000000    -0.00167464 
C561     C      0.250120000000     0.265040000000     0.024160000000    -0.0368365  
C562     C      0.280510000000     0.300630000000     0.015130000000    -0.0368434  
C563     C      0.200540000000     0.221830000000     0.063530000000     0.0353262  
C564     C      0.169740000000     0.220000000000     0.079080000000    -0.0771705  
C565     C      0.136140000000     0.185200000000     0.083520000000     0.0366008  
C566     C      0.132310000000     0.151390000000     0.072280000000    -0.129773   
C567     C      0.164180000000     0.152710000000     0.059170000000     0.0412268  
C568     C      0.197930000000     0.187620000000     0.054760000000    -0.0749191  
C569     C      0.902570000000     0.026040000000     0.091280000000    -0.128422   
C570     C      0.876390000000     0.990170000000     0.104290000000     0.038244   
C571     C      0.840670000000     0.982820000000     0.113910000000    -0.0763874  
C572     C      0.831030000000     0.011500000000     0.111290000000     0.0354808  
C573     C      0.857600000000     0.047500000000     0.098870000000    -0.0768535  
C574     C      0.892860000000     0.054610000000     0.088760000000     0.038213   
C575     C      0.792500000000     0.003750000000     0.119030000000    -0.0023402  
C576     C      0.759480000000     0.972540000000     0.105360000000    -0.0366265  
C577     C      0.723690000000     0.969710000000     0.106690000000    -0.0366093  
C578     C      0.720310000000     0.997960000000     0.121890000000    -0.00260486 
C579     C      0.752870000000     0.027240000000     0.138110000000    -0.0371893  
C580     C      0.788650000000     0.030200000000     0.136560000000    -0.0371621  
C581     C      0.684720000000     0.999990000000     0.116540000000     0.0367366  
C582     C      0.648290000000     0.966880000000     0.116100000000    -0.0798447  
C583     C      0.615610000000     0.968520000000     0.105280000000     0.0408097  
C584     C      0.618890000000     0.003260000000     0.094470000000    -0.142721   
C585     C      0.654900000000     0.036650000000     0.097030000000     0.0408762  
C586     C      0.687420000000     0.035040000000     0.107910000000    -0.079061   
C587     C      0.142740000000     0.056100000000     0.006440000000    -0.0853859  
C588     C      0.172470000000     0.080590000000     0.986120000000     0.01477    
C589     C      0.204560000000     0.076260000000     0.983820000000    -0.0651738  
C590     C      0.207620000000     0.047810000000     0.002230000000     0.0267198  
C591     C      0.178190000000     0.023980000000     0.022920000000    -0.0654772  
C592     C      0.146230000000     0.028010000000     0.024960000000     0.0169452  
C593     C      0.241000000000     0.042250000000     0.000290000000     0.00102131 
C594     C      0.254390000000     0.040380000000     0.970180000000    -0.0382199  
C595     C      0.283370000000     0.031210000000     0.968860000000    -0.0367011  
C596     C      0.299390000000     0.023740000000     0.997640000000    -0.00168056 
C597     C      0.286840000000     0.027090000000     0.027670000000    -0.0363044  
C598     C      0.258040000000     0.036130000000     0.028960000000    -0.0384911  
C599     C      0.329940000000     0.013620000000     0.997180000000     0.0338984  
C600     C      0.361160000000     0.033550000000     0.976980000000    -0.073497   
C601     C      0.393820000000     0.029930000000     0.982020000000     0.0352966  
C602     C      0.395750000000     0.006640000000     0.007510000000    -0.124596   
C603     C      0.363080000000     0.983860000000     0.025330000000     0.0363875  
C604     C      0.330370000000     0.986970000000     0.019980000000    -0.0738747  
C605     C      0.000660000000     0.919890000000     0.093130000000    -0.0902916  
C606     C      0.965370000000     0.885540000000     0.092120000000     0.0180829  
C607     C      0.964280000000     0.851130000000     0.087930000000    -0.0663356  
C608     C      0.998450000000     0.850530000000     0.085000000000     0.0273156  
C609     C      0.033750000000     0.884520000000     0.089190000000    -0.0658639  
C610     C      0.034820000000     0.918810000000     0.093180000000     0.0177025  
C611     C      0.997630000000     0.815830000000     0.074280000000     0.000792554
C612     C      0.971370000000     0.793520000000     0.049330000000    -0.0378385  
C613     C      0.972990000000     0.763090000000     0.036920000000    -0.0366916  
C614     C      0.001030000000     0.754420000000     0.049050000000    -0.00265293 
C615     C      0.026820000000     0.776280000000     0.074370000000    -0.0362154  
C616     C      0.025110000000     0.806570000000     0.086860000000    -0.038524   
C617     C      0.002610000000     0.721730000000     0.036560000000     0.0350992  
C618     C      0.968860000000     0.686410000000     0.032080000000    -0.0768207  
C619     C      0.970850000000     0.653970000000     0.026350000000     0.0345464  
C620     C      0.006640000000     0.656240000000     0.025040000000    -0.130411   
C621     C      0.040130000000     0.692290000000     0.025960000000     0.0373396  
C622     C      0.038140000000     0.724670000000     0.031870000000    -0.0779736  
C623     C      0.001770000000     0.410950000000     0.042170000000    -0.0863175  
C624     C      0.985640000000     0.387510000000     0.015020000000     0.0183537  
C625     C      0.996510000000     0.361210000000     0.008400000000    -0.0659025  
C626     C      0.024420000000     0.358120000000     0.028390000000     0.0268927  
C627     C      0.039620000000     0.380740000000     0.056280000000    -0.0664864  
C628     C      0.027940000000     0.406480000000     0.063360000000     0.0151564  
C629     C      0.036920000000     0.330970000000     0.020140000000     0.000476685
C630     C      0.038020000000     0.323130000000     0.987410000000    -0.0379513  
C631     C      0.045280000000     0.294500000000     0.979580000000    -0.037006   
C632     C      0.052720000000     0.273890000000     0.004260000000    -0.00238234 
C633     C      0.054080000000     0.283160000000     0.036860000000    -0.0368368  
C634     C      0.045980000000     0.311210000000     0.044760000000    -0.0383704  
C635     C      0.053840000000     0.239510000000     0.996650000000     0.0338948  
C636     C      0.021450000000     0.209160000000     0.981350000000    -0.0750297  
C637     C      0.017950000000     0.173340000000     0.980950000000     0.0342795  
C638     C      0.047190000000     0.167610000000     0.995110000000    -0.12564    
C639     C      0.081290000000     0.198880000000     0.007420000000     0.0340622  
C640     C      0.084340000000     0.234530000000     0.008660000000    -0.0759791  
Co1      Co     0.010930000000     0.088960000000     0.060480000000     1.11303    
Co2      Co     0.020780000000     0.995820000000     0.023480000000     0.787134   
Co3      Co     0.060080000000     0.071200000000     0.016780000000     1.14675    
Co4      Co     0.989610000000     0.005690000000     0.068070000000     1.108      
Co5      Co     0.116690000000     0.076470000000     0.505630000000     1.12883    
Co6      Co     0.024850000000     0.057260000000     0.558570000000     0.875881   
Co7      Co     0.032170000000     0.013210000000     0.527320000000     1.1131     
Co8      Co     0.113970000000     0.082500000000     0.582280000000     1.09745    
Co9      Co     0.997880000000     0.501480000000     0.035390000000     1.09854    
Co10     Co     0.993240000000     0.575660000000     0.083230000000     1.11494    
Co11     Co     0.982660000000     0.490900000000     0.092370000000     0.864822   
Co12     Co     0.064430000000     0.592210000000     0.044020000000     1.14214    
Co13     Co     0.110280000000     0.524670000000     0.543070000000     1.09111    
Co14     Co     0.107920000000     0.611570000000     0.576650000000     1.04297    
Co15     Co     0.044870000000     0.523990000000     0.582980000000     1.12702    
Co16     Co     0.137180000000     0.611650000000     0.528230000000     0.892275   
Co17     Co     0.485390000000     0.036180000000     0.078400000000     0.891167   
Co18     Co     0.565300000000     0.027220000000     0.020050000000     1.13442    
Co19     Co     0.508610000000     0.059120000000     0.025030000000     1.02933    
Co20     Co     0.502220000000     0.968410000000     0.068740000000     1.08857    
Co21     Co     0.539670000000     0.048020000000     0.583000000000     0.936951   
Co22     Co     0.635700000000     0.063150000000     0.530600000000     1.0898     
Co23     Co     0.582600000000     0.102280000000     0.519440000000     1.11743    
Co24     Co     0.578350000000     0.016770000000     0.581860000000     1.01832    
Co25     Co     0.521220000000     0.493690000000     0.037990000000     1.13128    
Co26     Co     0.500630000000     0.574290000000     0.085000000000     0.910405   
Co27     Co     0.473610000000     0.505270000000     0.089180000000     1.04543    
Co28     Co     0.574390000000     0.581280000000     0.055160000000     1.08969    
Co29     Co     0.611130000000     0.522470000000     0.548850000000     1.09608    
Co30     Co     0.609400000000     0.609340000000     0.583930000000     1.04373    
Co31     Co     0.548730000000     0.522130000000     0.593730000000     1.12433    
Co32     Co     0.635580000000     0.609920000000     0.533970000000     0.886015   
H1       H      0.541110000000     0.514950000000     0.690150000000     0.0284032  
H2       H      0.538300000000     0.521340000000     0.748190000000     0.0500128  
H3       H      0.613010000000     0.642860000000     0.739140000000     0.0506253  
H4       H      0.615340000000     0.636670000000     0.680370000000     0.0377431  
H5       H      0.511030000000     0.555760000000     0.781820000000     0.0390272  
H6       H      0.506320000000     0.552640000000     0.840630000000     0.0384096  
H7       H      0.630110000000     0.611140000000     0.852810000000     0.0380629  
H8       H      0.634580000000     0.615460000000     0.793590000000     0.0397128  
H9       H      0.515970000000     0.516090000000     0.882530000000     0.049325   
H10      H      0.509230000000     0.502970000000     0.940350000000     0.0302003  
H11      H      0.606260000000     0.614780000000     0.960160000000     0.0262983  
H12      H      0.612390000000     0.628540000000     0.901570000000     0.0487086  
H13      H      0.572470000000     0.602070000000     0.449550000000     0.0366468  
H14      H      0.557190000000     0.595660000000     0.391430000000     0.0487136  
H15      H      0.558660000000     0.490310000000     0.394040000000     0.0480515  
H16      H      0.575100000000     0.497290000000     0.452320000000     0.0299444  
H17      H      0.509600000000     0.560190000000     0.350060000000     0.0382026  
H18      H      0.502420000000     0.560940000000     0.290910000000     0.0389315  
H19      H      0.581990000000     0.520540000000     0.285100000000     0.0387404  
H20      H      0.589880000000     0.520460000000     0.344350000000     0.0382334  
H21      H      0.543560000000     0.598220000000     0.244870000000     0.0491843  
H22      H      0.532120000000     0.598570000000     0.186060000000     0.034223   
H23      H      0.520140000000     0.487300000000     0.181790000000     0.0383248  
H24      H      0.531450000000     0.487010000000     0.240740000000     0.0498217  
H25      H      0.639920000000     0.713240000000     0.507550000000     0.033726   
H26      H      0.623170000000     0.761780000000     0.491330000000     0.0475308  
H27      H      0.569200000000     0.744670000000     0.582410000000     0.0480713  
H28      H      0.586480000000     0.696570000000     0.598960000000     0.0406109  
H29      H      0.642180000000     0.828550000000     0.513650000000     0.0389401  
H30      H      0.627150000000     0.878660000000     0.501930000000     0.0379954  
H31      H      0.508280000000     0.799990000000     0.522120000000     0.036346   
H32      H      0.524220000000     0.750350000000     0.535410000000     0.0373643  
H33      H      0.597220000000     0.905100000000     0.468650000000     0.0473193  
H34      H      0.598520000000     0.964900000000     0.474450000000     0.0276893  
H35      H      0.517350000000     0.913750000000     0.550190000000     0.0378281  
H36      H      0.517780000000     0.855000000000     0.545980000000     0.0475513  
H37      H      0.648770000000     0.464190000000     0.606720000000     0.0310492  
H38      H      0.643450000000     0.402500000000     0.615980000000     0.048129   
H39      H      0.525010000000     0.354180000000     0.639930000000     0.0481147  
H40      H      0.530030000000     0.415960000000     0.629700000000     0.0282378  
H41      H      0.634880000000     0.351300000000     0.651980000000     0.0377349  
H42      H      0.631100000000     0.290460000000     0.644350000000     0.0378549  
H43      H      0.518190000000     0.246690000000     0.597800000000     0.0369427  
H44      H      0.522110000000     0.307470000000     0.604810000000     0.0366149  
H45      H      0.632250000000     0.259500000000     0.594290000000     0.0486008  
H46      H      0.630660000000     0.203380000000     0.574680000000     0.0326639  
H47      H      0.514510000000     0.133180000000     0.605450000000     0.0291389  
H48      H      0.516240000000     0.189650000000     0.625280000000     0.0478991  
H49      H      0.602380000000     0.128220000000     0.659570000000     0.0318865  
H50      H      0.605780000000     0.139680000000     0.717490000000     0.0488957  
H51      H      0.625680000000     0.046050000000     0.739150000000     0.0494109  
H52      H      0.623790000000     0.035780000000     0.681160000000     0.0369016  
H53      H      0.560500000000     0.105160000000     0.757510000000     0.0387771  
H54      H      0.541790000000     0.097520000000     0.813570000000     0.0389876  
H55      H      0.631240000000     0.072790000000     0.843720000000     0.0381406  
H56      H      0.650790000000     0.081330000000     0.787720000000     0.0382373  
H57      H      0.563870000000     0.123480000000     0.871300000000     0.0495224  
H58      H      0.541990000000     0.107160000000     0.927110000000     0.0370641  
H59      H      0.549300000000     0.005180000000     0.924090000000     0.0333171  
H60      H      0.571160000000     0.021600000000     0.869140000000     0.0494764  
H61      H      0.553730000000     0.983420000000     0.162380000000     0.0297765  
H62      H      0.572760000000     0.991320000000     0.220280000000     0.0476012  
H63      H      0.554980000000     0.087350000000     0.221020000000     0.0477732  
H64      H      0.538120000000     0.080580000000     0.163320000000     0.0337339  
H65      H      0.547390000000     0.982320000000     0.271470000000     0.0378693  
H66      H      0.556480000000     0.987750000000     0.330580000000     0.038806   
H67      H      0.608800000000     0.109580000000     0.321040000000     0.0383776  
H68      H      0.602060000000     0.104840000000     0.262010000000     0.0375899  
H69      H      0.617560000000     0.023630000000     0.375810000000     0.0494779  
H70      H      0.622650000000     0.031340000000     0.435020000000     0.0242398  
H71      H      0.556800000000     0.088210000000     0.423990000000     0.0259447  
H72      H      0.552710000000     0.081350000000     0.365070000000     0.050503   
H73      H      0.457240000000     0.871090000000     0.014690000000     0.0307335  
H74      H      0.456590000000     0.813610000000     0.999690000000     0.048846   
H75      H      0.572990000000     0.881850000000     0.969220000000     0.0488568  
H76      H      0.573890000000     0.939250000000     0.984520000000     0.0281459  
H77      H      0.459740000000     0.776340000000     0.955400000000     0.0381536  
H78      H      0.460000000000     0.716600000000     0.953940000000     0.0379166  
H79      H      0.573390000000     0.770840000000     0.001280000000     0.0371141  
H80      H      0.573290000000     0.830190000000     0.002080000000     0.03738    
H81      H      0.454540000000     0.669770000000     0.993150000000     0.0477804  
H82      H      0.454530000000     0.612500000000     0.011890000000     0.0370585  
H83      H      0.574810000000     0.665420000000     0.992350000000     0.0303121  
H84      H      0.574450000000     0.722500000000     0.972360000000     0.0471739  
H85      H      0.536580000000     0.160740000000     0.088960000000     0.0369402  
H86      H      0.528970000000     0.214380000000     0.100650000000     0.0457355  
H87      H      0.447060000000     0.185750000000     0.018640000000     0.0463578  
H88      H      0.456980000000     0.133670000000     0.005930000000     0.0353694  
H89      H      0.486560000000     0.228670000000     0.122020000000     0.0379839  
H90      H      0.480750000000     0.282960000000     0.135850000000     0.0386187  
H91      H      0.462980000000     0.303080000000     0.034230000000     0.0377959  
H92      H      0.471270000000     0.250560000000     0.019850000000     0.0377486  
H93      H      0.529190000000     0.357730000000     0.116740000000     0.0493158  
H94      H      0.537530000000     0.421340000000     0.118750000000     0.0283146  
H95      H      0.423610000000     0.379260000000     0.074890000000     0.0328085  
H96      H      0.415840000000     0.315750000000     0.071710000000     0.0497029  
H97      H      0.013090000000     0.409330000000     0.524850000000     0.0265899  
H98      H      0.951460000000     0.352470000000     0.512460000000     0.0471687  
H99      H      0.901430000000     0.422650000000     0.486570000000     0.04806    
H100     H      0.962670000000     0.479260000000     0.500250000000     0.0296213  
H101     H      0.900640000000     0.313010000000     0.474850000000     0.0367653  
H102     H      0.838190000000     0.254690000000     0.476740000000     0.0372184  
H103     H      0.791200000000     0.315850000000     0.519560000000     0.0375922  
H104     H      0.853510000000     0.373830000000     0.518390000000     0.0370641  
H105     H      0.800290000000     0.213280000000     0.522500000000     0.0497467  
H106     H      0.740620000000     0.154560000000     0.532310000000     0.0289116  
H107     H      0.676120000000     0.207570000000     0.495020000000     0.0261233  
H108     H      0.736410000000     0.266750000000     0.485070000000     0.0489274  
H109     H      0.247140000000     0.633540000000     0.579270000000     0.0326423  
H110     H      0.311730000000     0.681330000000     0.597810000000     0.0482103  
H111     H      0.263710000000     0.733120000000     0.653680000000     0.048607   
H112     H      0.199520000000     0.683210000000     0.637260000000     0.0350118  
H113     H      0.351020000000     0.742990000000     0.583200000000     0.0374075  
H114     H      0.410400000000     0.803510000000     0.585940000000     0.0385724  
H115     H      0.382630000000     0.824190000000     0.679120000000     0.0393699  
H116     H      0.323920000000     0.761920000000     0.677940000000     0.037709   
H117     H      0.475140000000     0.838760000000     0.625190000000     0.0472667  
H118     H      0.529100000000     0.902690000000     0.615580000000     0.0402446  
H119     H      0.455350000000     0.949360000000     0.625680000000     0.032969   
H120     H      0.401590000000     0.885200000000     0.636160000000     0.0481822  
H121     H      0.953580000000     0.530190000000     0.560110000000     0.027961   
H122     H      0.899430000000     0.537040000000     0.540980000000     0.0492303  
H123     H      0.976690000000     0.652650000000     0.509610000000     0.0499029  
H124     H      0.031710000000     0.645830000000     0.529150000000     0.0342464  
H125     H      0.869030000000     0.544600000000     0.489430000000     0.0373385  
H126     H      0.807860000000     0.543110000000     0.484270000000     0.0376303  
H127     H      0.860260000000     0.652420000000     0.529820000000     0.0378376  
H128     H      0.921640000000     0.653740000000     0.535530000000     0.0386439  
H129     H      0.769560000000     0.537150000000     0.534920000000     0.0492532  
H130     H      0.706850000000     0.528370000000     0.544500000000     0.0240435  
H131     H      0.739030000000     0.636820000000     0.497450000000     0.0294474  
H132     H      0.802780000000     0.645990000000     0.488350000000     0.0492703  
H133     H      0.204260000000     0.528050000000     0.547960000000     0.0254118  
H134     H      0.266400000000     0.533700000000     0.542760000000     0.0490693  
H135     H      0.304740000000     0.639040000000     0.488280000000     0.0489634  
H136     H      0.241590000000     0.633140000000     0.493220000000     0.0299088  
H137     H      0.305870000000     0.532700000000     0.497590000000     0.0377182  
H138     H      0.366380000000     0.533360000000     0.506720000000     0.0375998  
H139     H      0.421180000000     0.648870000000     0.540120000000     0.0372905  
H140     H      0.360360000000     0.648220000000     0.530720000000     0.0372359  
H141     H      0.399190000000     0.533250000000     0.559730000000     0.049243   
H142     H      0.454330000000     0.527960000000     0.579130000000     0.0274789  
H143     H      0.530130000000     0.637840000000     0.535710000000     0.0362102  
H144     H      0.474360000000     0.643050000000     0.516060000000     0.0498559  
H145     H      0.996620000000     0.498950000000     0.934560000000     0.0371879  
H146     H      0.002440000000     0.507370000000     0.875990000000     0.0503877  
H147     H      0.079650000000     0.628060000000     0.887940000000     0.0495627  
H148     H      0.074730000000     0.619420000000     0.946750000000     0.0283885  
H149     H      0.985210000000     0.533150000000     0.829260000000     0.0383829  
H150     H      0.992450000000     0.536620000000     0.770760000000     0.0386609  
H151     H      0.113090000000     0.618790000000     0.784820000000     0.0393705  
H152     H      0.106250000000     0.614720000000     0.843570000000     0.0381726  
H153     H      0.027320000000     0.515250000000     0.736580000000     0.0499005  
H154     H      0.035280000000     0.512320000000     0.679110000000     0.0307292  
H155     H      0.098800000000     0.635170000000     0.672520000000     0.0380104  
H156     H      0.090810000000     0.637980000000     0.730700000000     0.050161   
H157     H      0.051730000000     0.502400000000     0.172960000000     0.0340407  
H158     H      0.067430000000     0.506140000000     0.231320000000     0.0482558  
H159     H      0.049270000000     0.601420000000     0.236260000000     0.0481414  
H160     H      0.034300000000     0.598240000000     0.177940000000     0.0303485  
H161     H      0.029370000000     0.491780000000     0.279560000000     0.0381922  
H162     H      0.034130000000     0.490960000000     0.338880000000     0.0378804  
H163     H      0.104110000000     0.613580000000     0.337890000000     0.0383097  
H164     H      0.099320000000     0.614390000000     0.278600000000     0.0378457  
H165     H      0.080970000000     0.503930000000     0.384300000000     0.0481918  
H166     H      0.090100000000     0.506780000000     0.443370000000     0.0306138  
H167     H      0.072610000000     0.603050000000     0.442270000000     0.0364302  
H168     H      0.062800000000     0.599660000000     0.383350000000     0.0484205  
H169     H      0.642040000000     0.137130000000     0.984720000000     0.0295139  
H170     H      0.691340000000     0.203010000000     0.976880000000     0.0488895  
H171     H      0.656650000000     0.233060000000     0.062420000000     0.0485438  
H172     H      0.605370000000     0.167040000000     0.068770000000     0.0322027  
H173     H      0.750250000000     0.249240000000     0.996100000000     0.0376187  
H174     H      0.804010000000     0.313990000000     0.993640000000     0.0397961  
H175     H      0.735750000000     0.354910000000     0.033050000000     0.0376501  
H176     H      0.680660000000     0.290250000000     0.033780000000     0.0375284  
H177     H      0.827330000000     0.385180000000     0.968440000000     0.0494046  
H178     H      0.891280000000     0.440700000000     0.980690000000     0.0358301  
H179     H      0.864430000000     0.429900000000     0.081670000000     0.0347036  
H180     H      0.800710000000     0.376990000000     0.069210000000     0.0496353  
H181     H      0.395490000000     0.951150000000     0.141750000000     0.030792   
H182     H      0.328750000000     0.902800000000     0.152470000000     0.0483932  
H183     H      0.316470000000     0.854480000000     0.058560000000     0.0489718  
H184     H      0.382660000000     0.901790000000     0.048100000000     0.0368099  
H185     H      0.292160000000     0.827970000000     0.159610000000     0.0381678  
H186     H      0.228880000000     0.771060000000     0.165670000000     0.037598   
H187     H      0.190140000000     0.796350000000     0.072670000000     0.0369714  
H188     H      0.253160000000     0.853060000000     0.066740000000     0.037835   
H189     H      0.130420000000     0.762340000000     0.104820000000     0.0469333  
H190     H      0.073940000000     0.699200000000     0.096220000000     0.0281003  
H191     H      0.142030000000     0.647600000000     0.125620000000     0.0306643  
H192     H      0.198170000000     0.710410000000     0.134450000000     0.049023   
H193     H      0.879210000000     0.513210000000     0.056600000000     0.0419455  
H194     H      0.813570000000     0.496040000000     0.062460000000     0.0501357  
H195     H      0.822280000000     0.469140000000     0.164230000000     0.0474841  
H196     H      0.889560000000     0.486000000000     0.158140000000     0.0286331  
H197     H      0.788780000000     0.511150000000     0.158030000000     0.038041   
H198     H      0.731530000000     0.517150000000     0.151990000000     0.037519   
H199     H      0.693530000000     0.446260000000     0.067220000000     0.037216   
H200     H      0.749300000000     0.438760000000     0.074540000000     0.037632   
H201     H      0.714360000000     0.552640000000     0.115110000000     0.049164   
H202     H      0.668820000000     0.572420000000     0.095750000000     0.0275551  
H203     H      0.590910000000     0.459380000000     0.060450000000     0.0283492  
H204     H      0.635400000000     0.438810000000     0.081310000000     0.0485114  
H205     H      0.083310000000     0.469650000000     0.031760000000     0.0330143  
H206     H      0.134360000000     0.454080000000     0.042930000000     0.0512149  
H207     H      0.206220000000     0.563720000000     0.086540000000     0.0509468  
H208     H      0.155120000000     0.578480000000     0.077020000000     0.0320856  
H209     H      0.177180000000     0.450140000000     0.100490000000     0.0377886  
H210     H      0.234990000000     0.445640000000     0.114330000000     0.0378663  
H211     H      0.300800000000     0.545120000000     0.053880000000     0.0392864  
H212     H      0.243890000000     0.550020000000     0.041140000000     0.0388385  
H213     H      0.287110000000     0.436080000000     0.093370000000     0.0446454  
H214     H      0.350360000000     0.441380000000     0.102810000000     0.0366691  
H215     H      0.402700000000     0.562990000000     0.111480000000     0.032495   
H216     H      0.340300000000     0.557640000000     0.103740000000     0.0471787  
H217     H      0.751610000000     0.640920000000     0.578570000000     0.0315906  
H218     H      0.815550000000     0.692650000000     0.594050000000     0.0480223  
H219     H      0.764940000000     0.737880000000     0.654490000000     0.0485684  
H220     H      0.701730000000     0.684190000000     0.641080000000     0.0357695  
H221     H      0.848920000000     0.754510000000     0.577900000000     0.0378416  
H222     H      0.904680000000     0.817570000000     0.577430000000     0.0403019  
H223     H      0.882040000000     0.836690000000     0.673370000000     0.0386339  
H224     H      0.826880000000     0.771950000000     0.675130000000     0.0376229  
H225     H      0.970810000000     0.858810000000     0.607800000000     0.0501184  
H226     H      0.016360000000     0.923460000000     0.590160000000     0.0424866  
H227     H      0.939000000000     0.960580000000     0.616570000000     0.0313225  
H228     H      0.893480000000     0.895620000000     0.634480000000     0.0484214  
H229     H      0.186510000000     0.184800000000     0.482260000000     0.0281185  
H230     H      0.249360000000     0.240450000000     0.472690000000     0.0488288  
H231     H      0.284850000000     0.235560000000     0.573220000000     0.0480878  
H232     H      0.222680000000     0.179550000000     0.582480000000     0.0251843  
H233     H      0.341910000000     0.252870000000     0.545710000000     0.0364708  
H234     H      0.404550000000     0.309860000000     0.541680000000     0.0366132  
H235     H      0.353940000000     0.363170000000     0.479770000000     0.0373381  
H236     H      0.290770000000     0.306760000000     0.485340000000     0.037479   
H237     H      0.457370000000     0.352200000000     0.509290000000     0.0478854  
H238     H      0.517910000000     0.410620000000     0.521710000000     0.0272481  
H239     H      0.456340000000     0.471140000000     0.526600000000     0.030705   
H240     H      0.396200000000     0.413020000000     0.515370000000     0.0481682  
H241     H      0.906550000000     0.933710000000     0.527310000000     0.0404811  
H242     H      0.841100000000     0.922210000000     0.529080000000     0.0459174  
H243     H      0.877720000000     0.032620000000     0.483920000000     0.0454441  
H244     H      0.942070000000     0.043290000000     0.481390000000     0.039596   
H245     H      0.811590000000     0.001100000000     0.469720000000     0.0375233  
H246     H      0.760500000000     0.010230000000     0.487460000000     0.0368098  
H247     H      0.761820000000     0.956020000000     0.579730000000     0.0389872  
H248     H      0.814030000000     0.948150000000     0.562720000000     0.0385526  
H249     H      0.765510000000     0.054480000000     0.533840000000     0.047985   
H250     H      0.721470000000     0.072850000000     0.552790000000     0.0248478  
H251     H      0.644970000000     0.956510000000     0.583060000000     0.037588   
H252     H      0.689730000000     0.938330000000     0.564380000000     0.0495539  
H253     H      0.152790000000     0.983690000000     0.566730000000     0.0270286  
H254     H      0.208890000000     0.975340000000     0.565790000000     0.0466233  
H255     H      0.282910000000     0.097600000000     0.560720000000     0.0477954  
H256     H      0.227430000000     0.105390000000     0.562310000000     0.0282281  
H257     H      0.255390000000     0.983910000000     0.526620000000     0.0366117  
H258     H      0.313680000000     0.983590000000     0.514200000000     0.0387645  
H259     H      0.381090000000     0.079540000000     0.576560000000     0.0378679  
H260     H      0.323200000000     0.079110000000     0.590020000000     0.0370493  
H261     H      0.369000000000     0.975160000000     0.545570000000     0.0496198  
H262     H      0.431780000000     0.981790000000     0.538470000000     0.0340051  
H263     H      0.478170000000     0.101060000000     0.514270000000     0.029534   
H264     H      0.415700000000     0.094320000000     0.521730000000     0.0488103  
H265     H      0.027820000000     0.917610000000     0.487740000000     0.0336412  
H266     H      0.042380000000     0.866440000000     0.489660000000     0.0505119  
H267     H      0.163720000000     0.949140000000     0.493110000000     0.0486741  
H268     H      0.149030000000     0.000550000000     0.491000000000     0.0289051  
H269     H      0.154520000000     0.901210000000     0.537910000000     0.0362972  
H270     H      0.162540000000     0.846860000000     0.553330000000     0.0383679  
H271     H      0.078930000000     0.781010000000     0.477420000000     0.0380394  
H272     H      0.071540000000     0.835480000000     0.461620000000     0.0375725  
H273     H      0.122110000000     0.782460000000     0.578770000000     0.0474514  
H274     H      0.123750000000     0.724800000000     0.595440000000     0.0398378  
H275     H      0.127720000000     0.702850000000     0.494630000000     0.0382733  
H276     H      0.126500000000     0.760290000000     0.478230000000     0.0468572  
H277     H      0.139200000000     0.195950000000     0.588950000000     0.0298874  
H278     H      0.141940000000     0.256020000000     0.598220000000     0.047392   
H279     H      0.029520000000     0.212220000000     0.550210000000     0.0475045  
H280     H      0.027690000000     0.153490000000     0.539740000000     0.0331798  
H281     H      0.114910000000     0.282280000000     0.630270000000     0.0378969  
H282     H      0.113160000000     0.339460000000     0.642490000000     0.0384187  
H283     H      0.053630000000     0.332210000000     0.549910000000     0.0372281  
H284     H      0.056830000000     0.276440000000     0.536850000000     0.0374125  
H285     H      0.142830000000     0.408270000000     0.616540000000     0.0490578  
H286     H      0.143890000000     0.468740000000     0.617140000000     0.0318252  
H287     H      0.021780000000     0.410220000000     0.593670000000     0.0290257  
H288     H      0.020970000000     0.350020000000     0.592690000000     0.0487161  
H289     H      0.085500000000     0.034110000000     0.671820000000     0.0303079  
H290     H      0.066950000000     0.021660000000     0.728140000000     0.0488124  
H291     H      0.974720000000     0.044280000000     0.703220000000     0.0485957  
H292     H      0.994300000000     0.058160000000     0.647260000000     0.030144   
H293     H      0.019900000000     0.980150000000     0.764990000000     0.0384791  
H294     H      0.011840000000     0.977410000000     0.823200000000     0.0385143  
H295     H      0.986940000000     0.068820000000     0.812390000000     0.0381859  
H296     H      0.997450000000     0.073220000000     0.754590000000     0.0381219  
H297     H      0.969500000000     0.963050000000     0.866370000000     0.0492781  
H298     H      0.977200000000     0.966010000000     0.925570000000     0.0333555  
H299     H      0.034050000000     0.088700000000     0.919190000000     0.0380677  
H300     H      0.027590000000     0.085860000000     0.860300000000     0.0502889  
H301     H      0.080470000000     0.122730000000     0.423510000000     0.0319599  
H302     H      0.073420000000     0.122020000000     0.364100000000     0.0498052  
H303     H      0.997820000000     0.000300000000     0.367610000000     0.0507315  
H304     H      0.004120000000     0.000910000000     0.427000000000     0.0344225  
H305     H      0.020420000000     0.103000000000     0.315670000000     0.038423   
H306     H      0.023000000000     0.102150000000     0.256810000000     0.0378522  
H307     H      0.057650000000     0.017550000000     0.268170000000     0.0381821  
H308     H      0.052880000000     0.017170000000     0.326850000000     0.0394546  
H309     H      0.063730000000     0.120120000000     0.214100000000     0.0478566  
H310     H      0.059010000000     0.118100000000     0.154950000000     0.0253075  
H311     H      0.020250000000     0.998100000000     0.159620000000     0.0364485  
H312     H      0.022630000000     0.999280000000     0.218800000000     0.0502926  
H313     H      0.587270000000     0.698390000000     0.077980000000     0.0314933  
H314     H      0.646170000000     0.755240000000     0.061000000000     0.0477222  
H315     H      0.708770000000     0.695830000000     0.079540000000     0.04772    
H316     H      0.650420000000     0.639370000000     0.096780000000     0.026936   
H317     H      0.712940000000     0.803670000000     0.086130000000     0.0378956  
H318     H      0.773650000000     0.858170000000     0.070230000000     0.0371063  
H319     H      0.790820000000     0.786170000000     0.008090000000     0.0370434  
H320     H      0.730730000000     0.731530000000     0.025130000000     0.037084   
H321     H      0.808100000000     0.901860000000     0.028950000000     0.048353   
H322     H      0.872510000000     0.956300000000     0.023740000000     0.0358546  
H323     H      0.917920000000     0.880750000000     0.021880000000     0.0305613  
H324     H      0.853900000000     0.826290000000     0.028650000000     0.0469819  
H325     H      0.369330000000     0.463420000000     0.040630000000     0.0349297  
H326     H      0.308210000000     0.403590000000     0.044650000000     0.0481643  
H327     H      0.360130000000     0.343200000000     0.008950000000     0.0476066  
H328     H      0.420680000000     0.402420000000     0.005070000000     0.0277667  
H329     H      0.290220000000     0.349010000000     0.083560000000     0.0388602  
H330     H      0.237180000000     0.287020000000     0.099280000000     0.0376473  
H331     H      0.238930000000     0.242080000000     0.007040000000     0.0397655  
H332     H      0.292350000000     0.304020000000     0.991560000000     0.0378904  
H333     H      0.170570000000     0.245670000000     0.086070000000     0.0465729  
H334     H      0.112160000000     0.185170000000     0.093830000000     0.0261825  
H335     H      0.162320000000     0.127210000000     0.050380000000     0.0372553  
H336     H      0.221500000000     0.187930000000     0.043450000000     0.0500943  
H337     H      0.883160000000     0.967590000000     0.106310000000     0.0375185  
H338     H      0.820550000000     0.954770000000     0.123260000000     0.0489565  
H339     H      0.850640000000     0.069920000000     0.096040000000     0.0491579  
H340     H      0.912540000000     0.082560000000     0.078940000000     0.0274359  
H341     H      0.761710000000     0.951860000000     0.091570000000     0.0373251  
H342     H      0.699270000000     0.946950000000     0.093730000000     0.0373994  
H343     H      0.751050000000     0.048980000000     0.150600000000     0.037663   
H344     H      0.813650000000     0.054200000000     0.147770000000     0.0381338  
H345     H      0.645250000000     0.939530000000     0.122990000000     0.0482511  
H346     H      0.588170000000     0.942320000000     0.103830000000     0.0276257  
H347     H      0.658330000000     0.063920000000     0.089200000000     0.0324312  
H348     H      0.715010000000     0.061080000000     0.107600000000     0.0493816  
H349     H      0.170510000000     0.102420000000     0.971490000000     0.0407397  
H350     H      0.227000000000     0.095190000000     0.967830000000     0.0458106  
H351     H      0.179460000000     0.001540000000     0.037160000000     0.04621    
H352     H      0.123970000000     0.008690000000     0.040950000000     0.041464   
H353     H      0.241600000000     0.044780000000     0.947670000000     0.0389819  
H354     H      0.292570000000     0.029080000000     0.945370000000     0.0380772  
H355     H      0.299440000000     0.022890000000     0.050370000000     0.0392021  
H356     H      0.248890000000     0.038100000000     0.052540000000     0.0391054  
H357     H      0.361740000000     0.054260000000     0.959170000000     0.0485577  
H358     H      0.418890000000     0.048320000000     0.968300000000     0.03814    
H359     H      0.363920000000     0.965910000000     0.045240000000     0.0312971  
H360     H      0.306350000000     0.970340000000     0.035300000000     0.0484035  
H361     H      0.938570000000     0.885550000000     0.091730000000     0.0397421  
H362     H      0.936640000000     0.825290000000     0.085390000000     0.0453845  
H363     H      0.060630000000     0.885230000000     0.086950000000     0.0457276  
H364     H      0.062430000000     0.944900000000     0.093830000000     0.0380842  
H365     H      0.950300000000     0.800300000000     0.038640000000     0.0381104  
H366     H      0.952780000000     0.746800000000     0.017390000000     0.0377597  
H367     H      0.048120000000     0.769700000000     0.084840000000     0.0365223  
H368     H      0.045430000000     0.822840000000     0.106340000000     0.0377816  
H369     H      0.941040000000     0.683250000000     0.035370000000     0.048229   
H370     H      0.944470000000     0.626690000000     0.025510000000     0.0327875  
H371     H      0.068200000000     0.695210000000     0.024870000000     0.0287299  
H372     H      0.064590000000     0.751720000000     0.034400000000     0.0472756  
H373     H      0.964820000000     0.389770000000     0.998560000000     0.0411946  
H374     H      0.982950000000     0.343360000000     0.987440000000     0.0459682  
H375     H      0.061320000000     0.379420000000     0.072200000000     0.0440537  
H376     H      0.040920000000     0.424250000000     0.084460000000     0.0397658  
H377     H      0.032430000000     0.338520000000     0.967720000000     0.0385215  
H378     H      0.044180000000     0.287800000000     0.954280000000     0.0388858  
H379     H      0.059230000000     0.267170000000     0.056310000000     0.037413   
H380     H      0.045080000000     0.316030000000     0.070190000000     0.0371601  
H381     H      0.997500000000     0.212360000000     0.972120000000     0.0494332  
H382     H      0.991330000000     0.149540000000     0.971550000000     0.0316159  
H383     H      0.104090000000     0.195080000000     0.018750000000     0.0372715  
H384     H      0.109550000000     0.257620000000     0.020560000000     0.0487915  
O1       O      0.007800000000     0.107820000000     0.018250000000    -0.42632    
O2       O      0.968580000000     0.953300000000     0.022190000000    -0.415674   
O3       O      0.034430000000     0.061430000000     0.975770000000    -0.442992   
O4       O      0.955060000000     0.014930000000     0.091220000000    -0.397604   
O5       O      0.010730000000     0.001080000000     0.978760000000    -0.418901   
O6       O      0.956940000000     0.060230000000     0.059240000000    -0.432552   
O7       O      0.945410000000     0.984320000000     0.039600000000    -0.430397   
O8       O      0.065420000000     0.121050000000     0.006960000000    -0.392251   
O9       O      0.015800000000     0.074970000000     0.104930000000    -0.444476   
O10      O      0.077120000000     0.027860000000     0.018470000000    -0.432628   
O11      O      0.089320000000     0.087010000000     0.057510000000    -0.430509   
O12      O      0.973320000000     0.960390000000     0.090980000000    -0.399601   
O13      O      0.028710000000     0.980820000000     0.067870000000    -0.414944   
O14      O      0.065240000000     0.122720000000     0.065810000000    -0.448184   
O15      O      0.030570000000     0.030700000000     0.100970000000    -0.41404    
O16      O      0.104990000000     0.086530000000     0.997280000000    -0.404663   
O17      O      0.012820000000     0.045870000000     0.039040000000    -0.627536   
O18      O      0.086100000000     0.085920000000     0.475420000000    -0.458519   
O19      O      0.051540000000     0.107480000000     0.543060000000    -0.402504   
O20      O      0.981690000000     0.977510000000     0.516330000000    -0.390647   
O21      O      0.159710000000     0.121620000000     0.563330000000    -0.455049   
O22      O      0.993560000000     0.037320000000     0.518120000000    -0.426781   
O23      O      0.137470000000     0.127980000000     0.516300000000    -0.450658   
O24      O      0.099340000000     0.122570000000     0.580580000000    -0.40436    
O25      O      0.034420000000     0.031840000000     0.482010000000    -0.420635   
O26      O      0.152640000000     0.067900000000     0.532340000000    -0.440741   
O27      O      0.993250000000     0.007010000000     0.578470000000    -0.430066   
O28      O      0.050790000000     0.983640000000     0.514010000000    -0.436478   
O29      O      0.076160000000     0.047820000000     0.610450000000    -0.438366   
O30      O      0.041190000000     0.073530000000     0.602570000000    -0.407616   
O31      O      0.101460000000     0.027160000000     0.489390000000    -0.453047   
O32      O      0.132610000000     0.048030000000     0.582090000000    -0.421082   
O33      O      0.031050000000     0.988210000000     0.567350000000    -0.418271   
O34      O      0.077630000000     0.056680000000     0.542570000000    -0.57623    
O35      O      0.946930000000     0.492610000000     0.024330000000    -0.399467   
O36      O      0.981810000000     0.593220000000     0.043700000000    -0.43606    
O37      O      0.949630000000     0.502230000000     0.118020000000    -0.382916   
O38      O      0.054850000000     0.580010000000     0.999580000000    -0.466723   
O39      O      0.945240000000     0.534420000000     0.077520000000    -0.460223   
O40      O      0.008310000000     0.521370000000     0.992970000000    -0.427631   
O41      O      0.042540000000     0.624780000000     0.033240000000    -0.436899   
O42      O      0.936250000000     0.459740000000     0.068360000000    -0.440394   
O43      O      0.050410000000     0.509770000000     0.040810000000    -0.425028   
O44      O      0.008380000000     0.561300000000     0.125770000000    -0.418821   
O45      O      0.003470000000     0.460630000000     0.073270000000    -0.400229   
O46      O      0.080990000000     0.608730000000     0.087020000000    -0.455678   
O47      O      0.038960000000     0.624840000000     0.092250000000    -0.445165   
O48      O      0.983400000000     0.454620000000     0.021060000000    -0.405786   
O49      O      0.092300000000     0.568210000000     0.051480000000    -0.476854   
O50      O      0.025260000000     0.517710000000     0.120650000000    -0.40989    
O51      O      0.011750000000     0.545670000000     0.059700000000    -0.565257   
O52      O      0.058210000000     0.482670000000     0.533420000000    -0.438124   
O53      O      0.120980000000     0.661010000000     0.584750000000    -0.395101   
O54      O      0.022890000000     0.555410000000     0.578180000000    -0.456727   
O55      O      0.098450000000     0.590290000000     0.495890000000    -0.411788   
O56      O      0.062920000000     0.605220000000     0.551080000000    -0.417554   
O57      O      0.104050000000     0.539130000000     0.497780000000    -0.424105   
O58      O      0.126010000000     0.652970000000     0.533560000000    -0.422641   
O59      O      0.021810000000     0.505890000000     0.541950000000    -0.462226   
O60      O      0.162540000000     0.558740000000     0.550350000000    -0.448357   
O61      O      0.082000000000     0.599180000000     0.617040000000    -0.397923   
O62      O      0.055160000000     0.482900000000     0.592710000000    -0.439844   
O63      O      0.179910000000     0.635580000000     0.558620000000    -0.432396   
O64      O      0.150480000000     0.618260000000     0.603400000000    -0.418101   
O65      O      0.115290000000     0.506770000000     0.584810000000    -0.439709   
O66      O      0.167510000000     0.593630000000     0.508680000000    -0.399718   
O67      O      0.064070000000     0.539510000000     0.625160000000    -0.458206   
O68      O      0.097960000000     0.562840000000     0.561900000000    -0.551961   
O69      O      0.440420000000     0.021270000000     0.051360000000    -0.437845   
O70      O      0.550320000000     0.974760000000     0.016070000000    -0.448366   
O71      O      0.529200000000     0.067690000000     0.982000000000    -0.394206   
O72      O      0.450170000000     0.954050000000     0.063970000000    -0.443942   
O73      O      0.541120000000     0.021720000000     0.979100000000    -0.459878   
O74      O      0.453660000000     0.988780000000     0.102470000000    -0.398778   
O75      O      0.491340000000     0.941600000000     0.029800000000    -0.439225   
O76      O      0.461260000000     0.023480000000     0.004230000000    -0.410266   
O77      O      0.526830000000     0.050920000000     0.108170000000    -0.411869   
O78      O      0.591410000000     0.081090000000     0.017180000000    -0.458088   
O79      O      0.497350000000     0.096720000000     0.013680000000    -0.395253   
O80      O      0.553050000000     0.975070000000     0.076390000000    -0.441821   
O81      O      0.592580000000     0.032820000000     0.059770000000    -0.460609   
O82      O      0.502190000000     0.090160000000     0.066870000000    -0.412965   
O83      O      0.514650000000     0.991710000000     0.112040000000    -0.418712   
O84      O      0.558530000000     0.098070000000     0.043700000000    -0.410176   
O85      O      0.516720000000     0.019210000000     0.044280000000    -0.548445   
O86      O      0.505700000000     0.026190000000     0.546950000000    -0.426782   
O87      O      0.604240000000     0.009180000000     0.520920000000    -0.430575   
O88      O      0.570680000000     0.072180000000     0.483020000000    -0.465894   
O89      O      0.561180000000     0.974820000000     0.608530000000    -0.391385   
O90      O      0.622930000000     0.069100000000     0.485900000000    -0.454579   
O91      O      0.520820000000     0.994660000000     0.598550000000    -0.446993   
O92      O      0.550270000000     0.985360000000     0.545880000000    -0.409012   
O93      O      0.527680000000     0.080110000000     0.521620000000    -0.437482   
O94      O      0.569560000000     0.068390000000     0.621030000000    -0.445498   
O95      O      0.669150000000     0.114360000000     0.536900000000    -0.458649   
O96      O      0.594500000000     0.135540000000     0.553490000000    -0.457206   
O97      O      0.616720000000     0.001970000000     0.578570000000    -0.382249   
O98      O      0.656970000000     0.059220000000     0.571380000000    -0.436598   
O99      O      0.543080000000     0.097290000000     0.579060000000    -0.413357   
O100     O      0.608390000000     0.047060000000     0.618520000000    -0.405576   
O101     O      0.635550000000     0.134670000000     0.509120000000    -0.450271   
O102     O      0.589820000000     0.062890000000     0.552460000000    -0.521248   
O103     O      0.467300000000     0.465250000000     0.029640000000    -0.454153   
O104     O      0.489390000000     0.582810000000     0.041830000000    -0.408286   
O105     O      0.428210000000     0.482620000000     0.111150000000    -0.3878     
O106     O      0.578350000000     0.569370000000     0.011050000000    -0.439439   
O107     O      0.445920000000     0.539780000000     0.091790000000    -0.443929   
O108     O      0.522680000000     0.519700000000     0.999350000000    -0.465471   
O109     O      0.550640000000     0.608620000000     0.031770000000    -0.416748   
O110     O      0.443170000000     0.496440000000     0.048670000000    -0.41224    
O111     O      0.575190000000     0.512100000000     0.040830000000    -0.45221    
O112     O      0.512440000000     0.568780000000     0.130060000000    -0.421898   
O113     O      0.465610000000     0.454080000000     0.090400000000    -0.397186   
O114     O      0.577980000000     0.598030000000     0.096980000000    -0.443111   
O115     O      0.546580000000     0.624990000000     0.086180000000    -0.395559   
O116     O      0.520480000000     0.465150000000     0.075230000000    -0.460101   
O117     O      0.600130000000     0.557890000000     0.075210000000    -0.448709   
O118     O      0.501590000000     0.511190000000     0.128830000000    -0.424653   
O119     O      0.521250000000     0.535990000000     0.065860000000    -0.545144   
O120     O      0.558740000000     0.480200000000     0.541880000000    -0.440649   
O121     O      0.620640000000     0.658050000000     0.592020000000    -0.397361   
O122     O      0.525290000000     0.552550000000     0.590730000000    -0.453506   
O123     O      0.594900000000     0.586670000000     0.503460000000    -0.410182   
O124     O      0.562400000000     0.600330000000     0.560460000000    -0.420324   
O125     O      0.601640000000     0.536220000000     0.504220000000    -0.42481    
O126     O      0.622510000000     0.649960000000     0.540330000000    -0.418366   
O127     O      0.522690000000     0.502590000000     0.554070000000    -0.465636   
O128     O      0.663790000000     0.556970000000     0.553420000000    -0.44829    
O129     O      0.586730000000     0.597850000000     0.625590000000    -0.400967   
O130     O      0.560480000000     0.482100000000     0.602490000000    -0.443437   
O131     O      0.680200000000     0.635990000000     0.562220000000    -0.432602   
O132     O      0.654200000000     0.618520000000     0.608520000000    -0.417894   
O133     O      0.619200000000     0.504610000000     0.589640000000    -0.442857   
O134     O      0.665150000000     0.592350000000     0.513020000000    -0.403268   
O135     O      0.571010000000     0.539010000000     0.635060000000    -0.457278   
O136     O      0.600040000000     0.560950000000     0.569530000000    -0.548571   


