data_structure

_audit_creation_method RASPA-1.0
_audit_creation_date 2023-5-19
_audit_author_name 'Poobodin Mano'

_cell_length_a    30.4437
_cell_length_b    30.5041
_cell_length_c    29.2535
_cell_angle_alpha 90
_cell_angle_beta  90
_cell_angle_gamma 90
_cell_volume      27166.5

_symmetry_cell_setting          triclinic
_symmetry_space_group_name_Hall 'P 1'
_symmetry_space_group_name_H-M  'P 1'
_symmetry_Int_Tables_number     1

_symmetry_equiv_pos_as_xyz 'x,y,z'

loop_
_atom_site_label
_atom_site_type_symbol
_atom_site_fract_x
_atom_site_fract_y
_atom_site_fract_z
_atom_site_charge
C1       C      0.429570000000     0.432850000000     0.470830000000     0.393151   
C2       C      0.079360000000     0.078580000000     0.465820000000     0.39186    
C3       C      0.431010000000     0.079220000000     0.468540000000     0.391969   
C4       C      0.078860000000     0.431820000000     0.467970000000     0.392594   
C5       C      0.088000000000     0.425350000000     0.088600000000     0.400733   
C6       C      0.428650000000     0.087100000000     0.093200000000     0.400602   
C7       C      0.426100000000     0.425180000000     0.092260000000     0.401107   
C8       C      0.087470000000     0.088850000000     0.086790000000     0.400033   
C9       C      0.329290000000     0.331810000000     0.221110000000     0.391851   
C10      C      0.183510000000     0.182030000000     0.215900000000     0.393176   
C11      C      0.335620000000     0.183490000000     0.222430000000     0.394908   
C12      C      0.180700000000     0.328540000000     0.217510000000     0.392257   
C13      C      0.171600000000     0.334870000000     0.339160000000     0.401067   
C14      C      0.337670000000     0.175540000000     0.339830000000     0.400471   
C15      C      0.332650000000     0.339270000000     0.342450000000     0.40109    
C16      C      0.175390000000     0.171800000000     0.336770000000     0.401252   
C17      C      0.174390000000     0.119980000000     0.167120000000     0.0321598  
C18      C      0.125600000000     0.179530000000     0.161530000000     0.0205795  
C19      C      0.149880000000     0.097200000000     0.134480000000     0.0301112  
C20      C      0.101130000000     0.157370000000     0.128110000000     0.0627912  
C21      C      0.088090000000     0.139830000000     0.416100000000     0.0322442  
C22      C      0.138370000000     0.081390000000     0.412640000000     0.0207907  
C23      C      0.112550000000     0.162600000000     0.383510000000     0.0300377  
C24      C      0.162960000000     0.103620000000     0.379300000000     0.0625029  
C25      C      0.118520000000     0.338350000000     0.168900000000     0.0320076  
C26      C      0.178390000000     0.386830000000     0.163690000000     0.0206222  
C27      C      0.095880000000     0.363010000000     0.136290000000     0.0300825  
C28      C      0.156360000000     0.411490000000     0.130340000000     0.0628026  
C29      C      0.364770000000     0.100100000000     0.137920000000     0.0331167  
C30      C      0.424710000000     0.148470000000     0.143330000000     0.0214508  
C31      C      0.342070000000     0.124680000000     0.170290000000     0.0294962  
C32      C      0.402590000000     0.173040000000     0.176840000000     0.0619697  
C33      C      0.420040000000     0.371370000000     0.421630000000     0.0323731  
C34      C      0.368540000000     0.428820000000     0.420230000000     0.0208261  
C35      C      0.395280000000     0.348520000000     0.389410000000     0.0301283  
C36      C      0.343480000000     0.406400000000     0.387380000000     0.0626353  
C37      C      0.367880000000     0.089410000000     0.421250000000     0.0320062  
C38      C      0.428690000000     0.136410000000     0.413450000000     0.0204991  
C39      C      0.345100000000     0.113820000000     0.388490000000     0.0304251  
C40      C      0.406460000000     0.160840000000     0.380060000000     0.0631652  
C41      C      0.140440000000     0.422100000000     0.418760000000     0.0322166  
C42      C      0.081620000000     0.372190000000     0.415680000000     0.0208069  
C43      C      0.163040000000     0.397410000000     0.386260000000     0.0300312  
C44      C      0.103780000000     0.347250000000     0.382570000000     0.0627277  
C45      C      0.338670000000     0.393590000000     0.171970000000     0.0321287  
C46      C      0.389910000000     0.335980000000     0.170190000000     0.0203232  
C47      C      0.363440000000     0.416410000000     0.139560000000     0.0300014  
C48      C      0.414790000000     0.358150000000     0.137100000000     0.0626722  
C49      C      0.429570000000     0.432850000000     0.970830000000     0.393118   
C50      C      0.079360000000     0.078580000000     0.965830000000     0.391869   
C51      C      0.431010000000     0.079220000000     0.968540000000     0.391921   
C52      C      0.078860000000     0.431820000000     0.967970000000     0.392637   
C53      C      0.088000000000     0.425350000000     0.588600000000     0.40084    
C54      C      0.428650000000     0.087100000000     0.593200000000     0.400662   
C55      C      0.426100000000     0.425180000000     0.592260000000     0.401184   
C56      C      0.087470000000     0.088850000000     0.586780000000     0.400137   
C57      C      0.329290000000     0.331810000000     0.721110000000     0.391823   
C58      C      0.183510000000     0.182030000000     0.715900000000     0.393183   
C59      C      0.335620000000     0.183490000000     0.722430000000     0.394915   
C60      C      0.180700000000     0.328540000000     0.717510000000     0.392264   
C61      C      0.171600000000     0.334870000000     0.839160000000     0.401078   
C62      C      0.337670000000     0.175540000000     0.839830000000     0.400481   
C63      C      0.332650000000     0.339270000000     0.842450000000     0.401103   
C64      C      0.175390000000     0.171800000000     0.836770000000     0.401261   
C65      C      0.174390000000     0.119980000000     0.667120000000     0.0321734  
C66      C      0.125600000000     0.179530000000     0.661530000000     0.020604   
C67      C      0.149880000000     0.097200000000     0.634480000000     0.0301302  
C68      C      0.101130000000     0.157370000000     0.628110000000     0.062773   
C69      C      0.088090000000     0.139830000000     0.916100000000     0.0322598  
C70      C      0.138370000000     0.081390000000     0.912640000000     0.0208088  
C71      C      0.112550000000     0.162600000000     0.883510000000     0.0300581  
C72      C      0.162960000000     0.103620000000     0.879300000000     0.0625151  
C73      C      0.118520000000     0.338350000000     0.668900000000     0.0320197  
C74      C      0.178390000000     0.386830000000     0.663690000000     0.0206433  
C75      C      0.095880000000     0.363010000000     0.636290000000     0.030105   
C76      C      0.156360000000     0.411490000000     0.630340000000     0.0627933  
C77      C      0.364770000000     0.100100000000     0.637920000000     0.0331315  
C78      C      0.424710000000     0.148470000000     0.643330000000     0.0214708  
C79      C      0.342070000000     0.124680000000     0.670300000000     0.0295308  
C80      C      0.402590000000     0.173040000000     0.676840000000     0.0619785  
C81      C      0.420040000000     0.371370000000     0.921640000000     0.0324102  
C82      C      0.368540000000     0.428820000000     0.920230000000     0.0208528  
C83      C      0.395280000000     0.348520000000     0.889400000000     0.0301607  
C84      C      0.343480000000     0.406400000000     0.887380000000     0.062646   
C85      C      0.367880000000     0.089410000000     0.921240000000     0.0320163  
C86      C      0.428690000000     0.136410000000     0.913450000000     0.0205214  
C87      C      0.345100000000     0.113820000000     0.888490000000     0.0304437  
C88      C      0.406460000000     0.160840000000     0.880060000000     0.0631776  
C89      C      0.140440000000     0.422100000000     0.918760000000     0.0322494  
C90      C      0.081620000000     0.372190000000     0.915680000000     0.0208393  
C91      C      0.163040000000     0.397410000000     0.886270000000     0.0300304  
C92      C      0.103780000000     0.347250000000     0.882570000000     0.0627356  
C93      C      0.338670000000     0.393590000000     0.671970000000     0.0321364  
C94      C      0.389910000000     0.335980000000     0.670190000000     0.0203408  
C95      C      0.363440000000     0.416410000000     0.639560000000     0.030023   
C96      C      0.414790000000     0.358150000000     0.637100000000     0.0626666  
C97      C      0.429570000000     0.932850000000     0.470830000000     0.393146   
C98      C      0.079360000000     0.578580000000     0.465820000000     0.391862   
C99      C      0.431010000000     0.579220000000     0.468540000000     0.391973   
C100     C      0.078860000000     0.931820000000     0.467970000000     0.392721   
C101     C      0.088000000000     0.925350000000     0.088600000000     0.400728   
C102     C      0.428650000000     0.587100000000     0.093200000000     0.400527   
C103     C      0.426100000000     0.925180000000     0.092260000000     0.401103   
C104     C      0.087470000000     0.588850000000     0.086790000000     0.400036   
C105     C      0.329290000000     0.831810000000     0.221110000000     0.391946   
C106     C      0.183510000000     0.682030000000     0.215900000000     0.393176   
C107     C      0.335620000000     0.683490000000     0.222430000000     0.394909   
C108     C      0.180700000000     0.828540000000     0.217510000000     0.39226    
C109     C      0.171600000000     0.834870000000     0.339160000000     0.401161   
C110     C      0.337670000000     0.675540000000     0.339830000000     0.400472   
C111     C      0.332650000000     0.839270000000     0.342450000000     0.401093   
C112     C      0.175390000000     0.671800000000     0.336770000000     0.401207   
C113     C      0.174390000000     0.619980000000     0.167120000000     0.0321485  
C114     C      0.125600000000     0.679530000000     0.161530000000     0.0205804  
C115     C      0.149880000000     0.597200000000     0.134480000000     0.0301237  
C116     C      0.101130000000     0.657370000000     0.128110000000     0.0627932  
C117     C      0.088090000000     0.639830000000     0.416100000000     0.0322634  
C118     C      0.138370000000     0.581390000000     0.412640000000     0.0207859  
C119     C      0.112550000000     0.662600000000     0.383510000000     0.0300015  
C120     C      0.162960000000     0.603620000000     0.379300000000     0.0625354  
C121     C      0.118520000000     0.838350000000     0.168900000000     0.0320025  
C122     C      0.178390000000     0.886830000000     0.163690000000     0.0206304  
C123     C      0.095880000000     0.863010000000     0.136290000000     0.0300993  
C124     C      0.156360000000     0.911490000000     0.130340000000     0.0627943  
C125     C      0.364770000000     0.600100000000     0.137920000000     0.0331186  
C126     C      0.424710000000     0.648470000000     0.143330000000     0.0214511  
C127     C      0.342070000000     0.624680000000     0.170290000000     0.029503   
C128     C      0.402590000000     0.673040000000     0.176840000000     0.0619721  
C129     C      0.420040000000     0.871370000000     0.421630000000     0.0323765  
C130     C      0.368540000000     0.928820000000     0.420230000000     0.0208344  
C131     C      0.395280000000     0.848520000000     0.389410000000     0.0301297  
C132     C      0.343480000000     0.906400000000     0.387380000000     0.0626316  
C133     C      0.367880000000     0.589410000000     0.421250000000     0.0320132  
C134     C      0.428690000000     0.636410000000     0.413450000000     0.0205032  
C135     C      0.345100000000     0.613820000000     0.388490000000     0.0304315  
C136     C      0.406460000000     0.660840000000     0.380060000000     0.0631666  
C137     C      0.140440000000     0.922100000000     0.418760000000     0.0321923  
C138     C      0.081620000000     0.872190000000     0.415680000000     0.0208085  
C139     C      0.163040000000     0.897400000000     0.386260000000     0.0301152  
C140     C      0.103780000000     0.847250000000     0.382570000000     0.0627337  
C141     C      0.338670000000     0.893590000000     0.171970000000     0.0321376  
C142     C      0.389910000000     0.835980000000     0.170190000000     0.0203288  
C143     C      0.363440000000     0.916410000000     0.139560000000     0.0300041  
C144     C      0.414790000000     0.858150000000     0.137100000000     0.062673   
C145     C      0.429570000000     0.932850000000     0.970830000000     0.393113   
C146     C      0.079360000000     0.578580000000     0.965830000000     0.391871   
C147     C      0.431010000000     0.579220000000     0.968540000000     0.391925   
C148     C      0.078860000000     0.931820000000     0.967970000000     0.392765   
C149     C      0.088000000000     0.925350000000     0.588600000000     0.400835   
C150     C      0.428650000000     0.587100000000     0.593200000000     0.400587   
C151     C      0.426100000000     0.925180000000     0.592260000000     0.401179   
C152     C      0.087470000000     0.588850000000     0.586780000000     0.40014    
C153     C      0.329290000000     0.831810000000     0.721110000000     0.391917   
C154     C      0.183510000000     0.682030000000     0.715900000000     0.393183   
C155     C      0.335620000000     0.683490000000     0.722430000000     0.394916   
C156     C      0.180700000000     0.828540000000     0.717510000000     0.392268   
C157     C      0.171600000000     0.834870000000     0.839160000000     0.401171   
C158     C      0.337670000000     0.675540000000     0.839830000000     0.400482   
C159     C      0.332650000000     0.839270000000     0.842450000000     0.401106   
C160     C      0.175390000000     0.671800000000     0.836770000000     0.401217   
C161     C      0.174390000000     0.619980000000     0.667120000000     0.032162   
C162     C      0.125600000000     0.679530000000     0.661530000000     0.0206048  
C163     C      0.149880000000     0.597200000000     0.634480000000     0.0301428  
C164     C      0.101130000000     0.657370000000     0.628110000000     0.062775   
C165     C      0.088090000000     0.639830000000     0.916100000000     0.032279   
C166     C      0.138370000000     0.581390000000     0.912640000000     0.020804   
C167     C      0.112550000000     0.662600000000     0.883510000000     0.0300219  
C168     C      0.162960000000     0.603620000000     0.879300000000     0.0625476  
C169     C      0.118520000000     0.838350000000     0.668900000000     0.0320146  
C170     C      0.178390000000     0.886830000000     0.663690000000     0.0206516  
C171     C      0.095880000000     0.863010000000     0.636290000000     0.0301218  
C172     C      0.156360000000     0.911490000000     0.630340000000     0.062785   
C173     C      0.364770000000     0.600100000000     0.637920000000     0.0331334  
C174     C      0.424710000000     0.648470000000     0.643330000000     0.0214711  
C175     C      0.342070000000     0.624680000000     0.670300000000     0.0295376  
C176     C      0.402590000000     0.673040000000     0.676840000000     0.0619809  
C177     C      0.420040000000     0.871370000000     0.921640000000     0.0324136  
C178     C      0.368540000000     0.928820000000     0.920230000000     0.0208611  
C179     C      0.395280000000     0.848520000000     0.889400000000     0.0301622  
C180     C      0.343480000000     0.906400000000     0.887380000000     0.0626423  
C181     C      0.367880000000     0.589410000000     0.921240000000     0.0320233  
C182     C      0.428690000000     0.636410000000     0.913450000000     0.0205255  
C183     C      0.345100000000     0.613820000000     0.888490000000     0.0304501  
C184     C      0.406460000000     0.660840000000     0.880060000000     0.063179   
C185     C      0.140440000000     0.922100000000     0.918760000000     0.0322251  
C186     C      0.081620000000     0.872190000000     0.915680000000     0.0208409  
C187     C      0.163040000000     0.897400000000     0.886270000000     0.0301144  
C188     C      0.103780000000     0.847250000000     0.882570000000     0.0627416  
C189     C      0.338670000000     0.893590000000     0.671970000000     0.0321453  
C190     C      0.389910000000     0.835980000000     0.670190000000     0.0203464  
C191     C      0.363440000000     0.916410000000     0.639560000000     0.0300257  
C192     C      0.414790000000     0.858150000000     0.637100000000     0.0626674  
C193     C      0.929570000000     0.432850000000     0.470830000000     0.393146   
C194     C      0.579360000000     0.078580000000     0.465820000000     0.391867   
C195     C      0.931010000000     0.079220000000     0.468540000000     0.391962   
C196     C      0.578860000000     0.431820000000     0.467970000000     0.392598   
C197     C      0.588000000000     0.425350000000     0.088600000000     0.400738   
C198     C      0.928650000000     0.087100000000     0.093200000000     0.4005     
C199     C      0.926100000000     0.425180000000     0.092260000000     0.401141   
C200     C      0.587470000000     0.088850000000     0.086790000000     0.400037   
C201     C      0.829290000000     0.331810000000     0.221110000000     0.391852   
C202     C      0.683510000000     0.182030000000     0.215900000000     0.393177   
C203     C      0.835610000000     0.183490000000     0.222430000000     0.394902   
C204     C      0.680700000000     0.328540000000     0.217510000000     0.392255   
C205     C      0.671590000000     0.334870000000     0.339160000000     0.401027   
C206     C      0.837660000000     0.175540000000     0.339830000000     0.400377   
C207     C      0.832660000000     0.339270000000     0.342450000000     0.401051   
C208     C      0.675390000000     0.171800000000     0.336770000000     0.401254   
C209     C      0.674390000000     0.119980000000     0.167120000000     0.0321617  
C210     C      0.625600000000     0.179530000000     0.161530000000     0.0205882  
C211     C      0.649880000000     0.097200000000     0.134480000000     0.0301133  
C212     C      0.601130000000     0.157370000000     0.128110000000     0.0627833  
C213     C      0.588090000000     0.139830000000     0.416100000000     0.0322492  
C214     C      0.638370000000     0.081390000000     0.412640000000     0.0207891  
C215     C      0.612550000000     0.162600000000     0.383510000000     0.0300437  
C216     C      0.662950000000     0.103620000000     0.379300000000     0.0625164  
C217     C      0.618520000000     0.338350000000     0.168900000000     0.0320267  
C218     C      0.678400000000     0.386830000000     0.163690000000     0.0205739  
C219     C      0.595880000000     0.363010000000     0.136290000000     0.0300825  
C220     C      0.656360000000     0.411490000000     0.130340000000     0.0628343  
C221     C      0.864760000000     0.100100000000     0.137920000000     0.0330654  
C222     C      0.924710000000     0.148470000000     0.143330000000     0.0214358  
C223     C      0.842070000000     0.124680000000     0.170290000000     0.0294834  
C224     C      0.902590000000     0.173040000000     0.176840000000     0.0620105  
C225     C      0.920040000000     0.371370000000     0.421630000000     0.0324035  
C226     C      0.868540000000     0.428820000000     0.420230000000     0.0208305  
C227     C      0.895290000000     0.348520000000     0.389410000000     0.0300836  
C228     C      0.843480000000     0.406400000000     0.387380000000     0.0626445  
C229     C      0.867880000000     0.089410000000     0.421250000000     0.0320181  
C230     C      0.928690000000     0.136410000000     0.413450000000     0.0205098  
C231     C      0.845100000000     0.113820000000     0.388490000000     0.0304061  
C232     C      0.906460000000     0.160840000000     0.380060000000     0.0631571  
C233     C      0.640440000000     0.422100000000     0.418760000000     0.0322153  
C234     C      0.581620000000     0.372190000000     0.415680000000     0.0208167  
C235     C      0.663040000000     0.397410000000     0.386260000000     0.0300452  
C236     C      0.603780000000     0.347250000000     0.382570000000     0.0627224  
C237     C      0.838670000000     0.393590000000     0.171970000000     0.0321544  
C238     C      0.889910000000     0.335980000000     0.170190000000     0.0203224  
C239     C      0.863440000000     0.416410000000     0.139560000000     0.0299488  
C240     C      0.914790000000     0.358150000000     0.137100000000     0.0626886  
C241     C      0.929570000000     0.432850000000     0.970830000000     0.393113   
C242     C      0.579360000000     0.078580000000     0.965830000000     0.391875   
C243     C      0.931010000000     0.079220000000     0.968540000000     0.391914   
C244     C      0.578860000000     0.431820000000     0.967970000000     0.392642   
C245     C      0.588000000000     0.425350000000     0.588600000000     0.400846   
C246     C      0.928650000000     0.087100000000     0.593200000000     0.400559   
C247     C      0.926100000000     0.425180000000     0.592260000000     0.401217   
C248     C      0.587470000000     0.088850000000     0.586780000000     0.400141   
C249     C      0.829290000000     0.331810000000     0.721110000000     0.391823   
C250     C      0.683510000000     0.182030000000     0.715900000000     0.393184   
C251     C      0.835610000000     0.183490000000     0.722430000000     0.394909   
C252     C      0.680700000000     0.328540000000     0.717510000000     0.392262   
C253     C      0.671590000000     0.334870000000     0.839160000000     0.401037   
C254     C      0.837660000000     0.175540000000     0.839830000000     0.400387   
C255     C      0.832660000000     0.339270000000     0.842450000000     0.401063   
C256     C      0.675390000000     0.171800000000     0.836770000000     0.401264   
C257     C      0.674390000000     0.119980000000     0.667120000000     0.0321753  
C258     C      0.625600000000     0.179530000000     0.661530000000     0.0206126  
C259     C      0.649880000000     0.097200000000     0.634480000000     0.0301323  
C260     C      0.601130000000     0.157370000000     0.628110000000     0.0627651  
C261     C      0.588090000000     0.139830000000     0.916100000000     0.0322648  
C262     C      0.638370000000     0.081390000000     0.912640000000     0.0208072  
C263     C      0.612550000000     0.162600000000     0.883510000000     0.0300642  
C264     C      0.662950000000     0.103620000000     0.879300000000     0.0625286  
C265     C      0.618520000000     0.338350000000     0.668900000000     0.0320388  
C266     C      0.678400000000     0.386830000000     0.663690000000     0.020595   
C267     C      0.595880000000     0.363010000000     0.636290000000     0.030105   
C268     C      0.656360000000     0.411490000000     0.630340000000     0.062825   
C269     C      0.864760000000     0.100100000000     0.637920000000     0.0330802  
C270     C      0.924710000000     0.148470000000     0.643330000000     0.0214557  
C271     C      0.842070000000     0.124680000000     0.670300000000     0.029518   
C272     C      0.902590000000     0.173040000000     0.676840000000     0.0620193  
C273     C      0.920040000000     0.371370000000     0.921640000000     0.0324406  
C274     C      0.868540000000     0.428820000000     0.920230000000     0.0208572  
C275     C      0.895290000000     0.348520000000     0.889400000000     0.030116   
C276     C      0.843480000000     0.406400000000     0.887380000000     0.0626551  
C277     C      0.867880000000     0.089410000000     0.921240000000     0.0320282  
C278     C      0.928690000000     0.136410000000     0.913450000000     0.0205321  
C279     C      0.845100000000     0.113820000000     0.888490000000     0.0304247  
C280     C      0.906460000000     0.160840000000     0.880060000000     0.0631695  
C281     C      0.640440000000     0.422100000000     0.918760000000     0.0322482  
C282     C      0.581620000000     0.372190000000     0.915680000000     0.0208491  
C283     C      0.663040000000     0.397410000000     0.886270000000     0.0300444  
C284     C      0.603780000000     0.347250000000     0.882570000000     0.0627303  
C285     C      0.838670000000     0.393590000000     0.671970000000     0.032162   
C286     C      0.889910000000     0.335980000000     0.670190000000     0.02034    
C287     C      0.863440000000     0.416410000000     0.639560000000     0.0299705  
C288     C      0.914790000000     0.358150000000     0.637100000000     0.062683   
C289     C      0.929570000000     0.932850000000     0.470830000000     0.393141   
C290     C      0.579360000000     0.578580000000     0.465820000000     0.391869   
C291     C      0.931010000000     0.579220000000     0.468540000000     0.391966   
C292     C      0.578860000000     0.931820000000     0.467970000000     0.392726   
C293     C      0.588000000000     0.925350000000     0.088600000000     0.400733   
C294     C      0.928650000000     0.587100000000     0.093200000000     0.400424   
C295     C      0.926100000000     0.925180000000     0.092260000000     0.401137   
C296     C      0.587470000000     0.588850000000     0.086790000000     0.40004    
C297     C      0.829290000000     0.831810000000     0.221110000000     0.391946   
C298     C      0.683510000000     0.682030000000     0.215900000000     0.393177   
C299     C      0.835610000000     0.683490000000     0.222430000000     0.394903   
C300     C      0.680700000000     0.828540000000     0.217510000000     0.392259   
C301     C      0.671590000000     0.834870000000     0.339160000000     0.40112    
C302     C      0.837660000000     0.675540000000     0.339830000000     0.400378   
C303     C      0.832660000000     0.839270000000     0.342450000000     0.401054   
C304     C      0.675390000000     0.671800000000     0.336770000000     0.40121    
C305     C      0.674390000000     0.619980000000     0.167120000000     0.0321504  
C306     C      0.625600000000     0.679530000000     0.161530000000     0.020589   
C307     C      0.649880000000     0.597200000000     0.134480000000     0.0301258  
C308     C      0.601130000000     0.657370000000     0.128110000000     0.0627852  
C309     C      0.588090000000     0.639830000000     0.416100000000     0.0322685  
C310     C      0.638370000000     0.581390000000     0.412640000000     0.0207842  
C311     C      0.612550000000     0.662600000000     0.383510000000     0.0300075  
C312     C      0.662950000000     0.603620000000     0.379300000000     0.0625489  
C313     C      0.618520000000     0.838350000000     0.168900000000     0.0320216  
C314     C      0.678400000000     0.886830000000     0.163690000000     0.0205821  
C315     C      0.595880000000     0.863010000000     0.136290000000     0.0300994  
C316     C      0.656360000000     0.911490000000     0.130340000000     0.062826   
C317     C      0.864760000000     0.600100000000     0.137920000000     0.0330672  
C318     C      0.924710000000     0.648470000000     0.143330000000     0.021436   
C319     C      0.842070000000     0.624680000000     0.170290000000     0.0294902  
C320     C      0.902590000000     0.673040000000     0.176840000000     0.0620129  
C321     C      0.920040000000     0.871370000000     0.421630000000     0.0324069  
C322     C      0.868540000000     0.928820000000     0.420230000000     0.0208388  
C323     C      0.895290000000     0.848520000000     0.389410000000     0.030085   
C324     C      0.843480000000     0.906400000000     0.387380000000     0.0626407  
C325     C      0.867880000000     0.589410000000     0.421250000000     0.0320251  
C326     C      0.928690000000     0.636410000000     0.413450000000     0.0205139  
C327     C      0.845100000000     0.613820000000     0.388490000000     0.0304126  
C328     C      0.906460000000     0.660840000000     0.380060000000     0.0631585  
C329     C      0.640440000000     0.922100000000     0.418760000000     0.0321911  
C330     C      0.581620000000     0.872190000000     0.415680000000     0.0208183  
C331     C      0.663040000000     0.897400000000     0.386260000000     0.0301292  
C332     C      0.603780000000     0.847250000000     0.382570000000     0.0627285  
C333     C      0.838670000000     0.893590000000     0.171970000000     0.0321633  
C334     C      0.889910000000     0.835980000000     0.170190000000     0.020328   
C335     C      0.863440000000     0.916410000000     0.139560000000     0.0299515  
C336     C      0.914790000000     0.858150000000     0.137100000000     0.0626894  
C337     C      0.929570000000     0.932850000000     0.970830000000     0.393108   
C338     C      0.579360000000     0.578580000000     0.965830000000     0.391877   
C339     C      0.931010000000     0.579220000000     0.968540000000     0.391918   
C340     C      0.578860000000     0.931820000000     0.967970000000     0.392769   
C341     C      0.588000000000     0.925350000000     0.588600000000     0.40084    
C342     C      0.928650000000     0.587100000000     0.593200000000     0.400484   
C343     C      0.926100000000     0.925180000000     0.592260000000     0.401213   
C344     C      0.587470000000     0.588850000000     0.586780000000     0.400145   
C345     C      0.829290000000     0.831810000000     0.721110000000     0.391917   
C346     C      0.683510000000     0.682030000000     0.715900000000     0.393184   
C347     C      0.835610000000     0.683490000000     0.722430000000     0.39491    
C348     C      0.680700000000     0.828540000000     0.717510000000     0.392266   
C349     C      0.671590000000     0.834870000000     0.839160000000     0.401131   
C350     C      0.837660000000     0.675540000000     0.839830000000     0.400388   
C351     C      0.832660000000     0.839270000000     0.842450000000     0.401067   
C352     C      0.675390000000     0.671800000000     0.836770000000     0.40122    
C353     C      0.674390000000     0.619980000000     0.667120000000     0.0321639  
C354     C      0.625600000000     0.679530000000     0.661530000000     0.0206135  
C355     C      0.649880000000     0.597200000000     0.634480000000     0.0301449  
C356     C      0.601130000000     0.657370000000     0.628110000000     0.062767   
C357     C      0.588090000000     0.639830000000     0.916100000000     0.0322841  
C358     C      0.638370000000     0.581390000000     0.912640000000     0.0208024  
C359     C      0.612550000000     0.662600000000     0.883510000000     0.030028   
C360     C      0.662950000000     0.603620000000     0.879300000000     0.0625611  
C361     C      0.618520000000     0.838350000000     0.668900000000     0.0320337  
C362     C      0.678400000000     0.886830000000     0.663690000000     0.0206033  
C363     C      0.595880000000     0.863010000000     0.636290000000     0.0301219  
C364     C      0.656360000000     0.911490000000     0.630340000000     0.0628167  
C365     C      0.864760000000     0.600100000000     0.637920000000     0.0330821  
C366     C      0.924710000000     0.648470000000     0.643330000000     0.021456   
C367     C      0.842070000000     0.624680000000     0.670300000000     0.0295248  
C368     C      0.902590000000     0.673040000000     0.676840000000     0.0620217  
C369     C      0.920040000000     0.871370000000     0.921640000000     0.032444   
C370     C      0.868540000000     0.928820000000     0.920230000000     0.0208655  
C371     C      0.895290000000     0.848520000000     0.889400000000     0.0301175  
C372     C      0.843480000000     0.906400000000     0.887380000000     0.0626514  
C373     C      0.867880000000     0.589410000000     0.921240000000     0.0320352  
C374     C      0.928690000000     0.636410000000     0.913450000000     0.0205362  
C375     C      0.845100000000     0.613820000000     0.888490000000     0.0304312  
C376     C      0.906460000000     0.660840000000     0.880060000000     0.0631709  
C377     C      0.640440000000     0.922100000000     0.918760000000     0.0322238  
C378     C      0.581620000000     0.872190000000     0.915680000000     0.0208507  
C379     C      0.663040000000     0.897400000000     0.886270000000     0.0301284  
C380     C      0.603780000000     0.847250000000     0.882570000000     0.0627363  
C381     C      0.838670000000     0.893590000000     0.671970000000     0.0321709  
C382     C      0.889910000000     0.835980000000     0.670190000000     0.0203455  
C383     C      0.863440000000     0.916410000000     0.639560000000     0.0299731  
C384     C      0.914790000000     0.858150000000     0.637100000000     0.0626839  
Co1      Co     0.005660000000     0.441830000000     0.534880000000     0.843362   
Co2      Co     0.506280000000     0.070400000000     0.033120000000     0.841945   
Co3      Co     0.440410000000     0.506690000000     0.536750000000     0.837355   
Co4      Co     0.070820000000     0.506220000000     0.034000000000     0.834137   
Co5      Co     0.253810000000     0.320500000000     0.284950000000     0.836001   
Co6      Co     0.256930000000     0.191180000000     0.283410000000     0.83595    
Co7      Co     0.319880000000     0.257600000000     0.287210000000     0.842376   
Co8      Co     0.190200000000     0.254660000000     0.283800000000     0.843668   
Co9      Co     0.005660000000     0.441830000000     0.034870000000     0.842739   
Co10     Co     0.506280000000     0.070400000000     0.533120000000     0.842517   
Co11     Co     0.440410000000     0.506690000000     0.036750000000     0.836802   
Co12     Co     0.070820000000     0.506220000000     0.534000000000     0.834694   
Co13     Co     0.253810000000     0.320500000000     0.784950000000     0.836046   
Co14     Co     0.256930000000     0.191180000000     0.783410000000     0.835955   
Co15     Co     0.319880000000     0.257600000000     0.787210000000     0.84238    
Co16     Co     0.190200000000     0.254660000000     0.783800000000     0.843668   
Co17     Co     0.005660000000     0.941830000000     0.534880000000     0.843492   
Co18     Co     0.506280000000     0.570400000000     0.033120000000     0.841878   
Co19     Co     0.440410000000     0.006690000000     0.536750000000     0.837191   
Co20     Co     0.070820000000     0.006220000000     0.034000000000     0.833943   
Co21     Co     0.253810000000     0.820500000000     0.284950000000     0.836095   
Co22     Co     0.256930000000     0.691180000000     0.283410000000     0.835949   
Co23     Co     0.319880000000     0.757600000000     0.287210000000     0.84238    
Co24     Co     0.190200000000     0.754660000000     0.283800000000     0.843671   
Co25     Co     0.005660000000     0.941830000000     0.034870000000     0.84287    
Co26     Co     0.506280000000     0.570400000000     0.533120000000     0.84245    
Co27     Co     0.440410000000     0.006690000000     0.036750000000     0.836638   
Co28     Co     0.070820000000     0.006220000000     0.534000000000     0.8345     
Co29     Co     0.253810000000     0.820500000000     0.784950000000     0.83614    
Co30     Co     0.256930000000     0.691180000000     0.783410000000     0.835955   
Co31     Co     0.319880000000     0.757600000000     0.787210000000     0.842384   
Co32     Co     0.190200000000     0.754660000000     0.783800000000     0.843672   
Co33     Co     0.505660000000     0.441830000000     0.534880000000     0.843535   
Co34     Co     0.006280000000     0.070400000000     0.033120000000     0.841757   
Co35     Co     0.940410000000     0.506690000000     0.536750000000     0.837433   
Co36     Co     0.570820000000     0.506220000000     0.034000000000     0.834117   
Co37     Co     0.753810000000     0.320500000000     0.284950000000     0.835979   
Co38     Co     0.756930000000     0.191180000000     0.283410000000     0.835989   
Co39     Co     0.819880000000     0.257600000000     0.287210000000     0.842359   
Co40     Co     0.690200000000     0.254660000000     0.283800000000     0.843672   
Co41     Co     0.505660000000     0.441830000000     0.034870000000     0.842912   
Co42     Co     0.006280000000     0.070400000000     0.533120000000     0.842329   
Co43     Co     0.940410000000     0.506690000000     0.036750000000     0.83688    
Co44     Co     0.570820000000     0.506220000000     0.534000000000     0.834674   
Co45     Co     0.753810000000     0.320500000000     0.784950000000     0.836024   
Co46     Co     0.756930000000     0.191180000000     0.783410000000     0.835995   
Co47     Co     0.819880000000     0.257600000000     0.787210000000     0.842363   
Co48     Co     0.690200000000     0.254660000000     0.783800000000     0.843673   
Co49     Co     0.505660000000     0.941830000000     0.534880000000     0.843665   
Co50     Co     0.006280000000     0.570400000000     0.033120000000     0.84169    
Co51     Co     0.940410000000     0.006690000000     0.536750000000     0.837268   
Co52     Co     0.570820000000     0.006220000000     0.034000000000     0.833924   
Co53     Co     0.753810000000     0.820500000000     0.284950000000     0.836073   
Co54     Co     0.756930000000     0.691180000000     0.283410000000     0.835989   
Co55     Co     0.819880000000     0.757600000000     0.287210000000     0.842364   
Co56     Co     0.690200000000     0.754660000000     0.283800000000     0.843676   
Co57     Co     0.505660000000     0.941830000000     0.034870000000     0.843043   
Co58     Co     0.006280000000     0.570400000000     0.533120000000     0.842262   
Co59     Co     0.940410000000     0.006690000000     0.036750000000     0.836716   
Co60     Co     0.570820000000     0.006220000000     0.534000000000     0.834481   
Co61     Co     0.753810000000     0.820500000000     0.784950000000     0.836118   
Co62     Co     0.756930000000     0.691180000000     0.783410000000     0.835995   
Co63     Co     0.819880000000     0.757600000000     0.787210000000     0.842367   
Co64     Co     0.690200000000     0.754660000000     0.783800000000     0.843676   
H1       H      0.161140000000     0.064540000000     0.125650000000     0.0469229  
H2       H      0.203040000000     0.103940000000     0.181460000000     0.0447228  
H3       H      0.115670000000     0.212530000000     0.171080000000     0.0505349  
H4       H      0.100530000000     0.194750000000     0.373820000000     0.0470304  
H5       H      0.058760000000     0.155430000000     0.429470000000     0.0448679  
H6       H      0.148940000000     0.048850000000     0.423140000000     0.0501517  
H7       H      0.063160000000     0.351930000000     0.127300000000     0.0466441  
H8       H      0.102330000000     0.309720000000     0.183010000000     0.0446135  
H9       H      0.211470000000     0.396580000000     0.173380000000     0.0506402  
H10      H      0.309260000000     0.113510000000     0.178880000000     0.0474163  
H11      H      0.348460000000     0.071550000000     0.123760000000     0.0448313  
H12      H      0.457720000000     0.158280000000     0.133500000000     0.050598   
H13      H      0.407830000000     0.316790000000     0.378930000000     0.0475444  
H14      H      0.450010000000     0.356220000000     0.434000000000     0.0451979  
H15      H      0.357440000000     0.460910000000     0.431590000000     0.0505081  
H16      H      0.311900000000     0.103440000000     0.380530000000     0.0464303  
H17      H      0.351390000000     0.061450000000     0.436420000000     0.0446735  
H18      H      0.462210000000     0.145600000000     0.422000000000     0.0507825  
H19      H      0.195270000000     0.409230000000     0.376410000000     0.0472329  
H20      H      0.156220000000     0.451380000000     0.431890000000     0.0448339  
H21      H      0.049030000000     0.361790000000     0.426350000000     0.0504403  
H22      H      0.351120000000     0.448250000000     0.129170000000     0.0462098  
H23      H      0.308850000000     0.408810000000     0.184600000000     0.0446962  
H24      H      0.400970000000     0.303920000000     0.181450000000     0.0519869  
H25      H      0.161140000000     0.064540000000     0.625650000000     0.0469464  
H26      H      0.203040000000     0.103940000000     0.681460000000     0.0447291  
H27      H      0.115670000000     0.212530000000     0.671080000000     0.0505375  
H28      H      0.100530000000     0.194750000000     0.873820000000     0.0470435  
H29      H      0.058760000000     0.155430000000     0.929470000000     0.0449119  
H30      H      0.148940000000     0.048850000000     0.923130000000     0.0501782  
H31      H      0.063160000000     0.351930000000     0.627300000000     0.0466612  
H32      H      0.102330000000     0.309720000000     0.683020000000     0.0446209  
H33      H      0.211470000000     0.396580000000     0.673380000000     0.0506427  
H34      H      0.309260000000     0.113510000000     0.678880000000     0.0474181  
H35      H      0.348460000000     0.071550000000     0.623760000000     0.0448667  
H36      H      0.457720000000     0.158280000000     0.633500000000     0.0506114  
H37      H      0.407830000000     0.316790000000     0.878930000000     0.0475528  
H38      H      0.450010000000     0.356220000000     0.934000000000     0.045233   
H39      H      0.357440000000     0.460910000000     0.931590000000     0.0505379  
H40      H      0.311900000000     0.103440000000     0.880530000000     0.0464465  
H41      H      0.351390000000     0.061450000000     0.936410000000     0.044718   
H42      H      0.462210000000     0.145600000000     0.922000000000     0.0508077  
H43      H      0.195270000000     0.409230000000     0.876410000000     0.047254   
H44      H      0.156220000000     0.451380000000     0.931890000000     0.0448762  
H45      H      0.049030000000     0.361790000000     0.926350000000     0.0504718  
H46      H      0.351120000000     0.448250000000     0.629170000000     0.0462337  
H47      H      0.308850000000     0.408810000000     0.684600000000     0.044699   
H48      H      0.400970000000     0.303920000000     0.681450000000     0.0519896  
H49      H      0.161140000000     0.564540000000     0.125650000000     0.0469436  
H50      H      0.203040000000     0.603950000000     0.181460000000     0.0447425  
H51      H      0.115670000000     0.712530000000     0.171080000000     0.0505346  
H52      H      0.100530000000     0.694750000000     0.373820000000     0.0470382  
H53      H      0.058760000000     0.655430000000     0.429470000000     0.0448642  
H54      H      0.148940000000     0.548850000000     0.423140000000     0.0501795  
H55      H      0.063160000000     0.851920000000     0.127300000000     0.0466363  
H56      H      0.102330000000     0.809720000000     0.183010000000     0.0446149  
H57      H      0.211470000000     0.896580000000     0.173380000000     0.0506437  
H58      H      0.309260000000     0.613510000000     0.178880000000     0.0474243  
H59      H      0.348460000000     0.571550000000     0.123760000000     0.0448514  
H60      H      0.457720000000     0.658280000000     0.133500000000     0.0506042  
H61      H      0.407830000000     0.816790000000     0.378930000000     0.0475442  
H62      H      0.450010000000     0.856220000000     0.434000000000     0.0451981  
H63      H      0.357440000000     0.960910000000     0.431590000000     0.0505308  
H64      H      0.311900000000     0.603440000000     0.380530000000     0.0464388  
H65      H      0.351390000000     0.561450000000     0.436420000000     0.0446951  
H66      H      0.462210000000     0.645600000000     0.422000000000     0.050784   
H67      H      0.195270000000     0.909240000000     0.376410000000     0.047207   
H68      H      0.156220000000     0.951380000000     0.431890000000     0.0448637  
H69      H      0.049030000000     0.861790000000     0.426350000000     0.0504402  
H70      H      0.351120000000     0.948250000000     0.129170000000     0.0462308  
H71      H      0.308850000000     0.908810000000     0.184600000000     0.0446997  
H72      H      0.400970000000     0.803920000000     0.181450000000     0.0519847  
H73      H      0.161140000000     0.564540000000     0.625650000000     0.046967   
H74      H      0.203040000000     0.603950000000     0.681460000000     0.0447488  
H75      H      0.115670000000     0.712530000000     0.671080000000     0.0505372  
H76      H      0.100530000000     0.694750000000     0.873820000000     0.0470513  
H77      H      0.058760000000     0.655430000000     0.929470000000     0.0449081  
H78      H      0.148940000000     0.548850000000     0.923130000000     0.0502061  
H79      H      0.063160000000     0.851920000000     0.627300000000     0.0466534  
H80      H      0.102330000000     0.809720000000     0.683020000000     0.0446223  
H81      H      0.211470000000     0.896580000000     0.673380000000     0.0506462  
H82      H      0.309260000000     0.613510000000     0.678880000000     0.0474262  
H83      H      0.348460000000     0.571550000000     0.623760000000     0.0448868  
H84      H      0.457720000000     0.658280000000     0.633500000000     0.0506176  
H85      H      0.407830000000     0.816790000000     0.878930000000     0.0475527  
H86      H      0.450010000000     0.856220000000     0.934000000000     0.0452332  
H87      H      0.357440000000     0.960910000000     0.931590000000     0.0505607  
H88      H      0.311900000000     0.603440000000     0.880530000000     0.046455   
H89      H      0.351390000000     0.561450000000     0.936410000000     0.0447395  
H90      H      0.462210000000     0.645600000000     0.922000000000     0.0508092  
H91      H      0.195270000000     0.909240000000     0.876410000000     0.0472281  
H92      H      0.156220000000     0.951380000000     0.931890000000     0.0449061  
H93      H      0.049030000000     0.861790000000     0.926350000000     0.0504717  
H94      H      0.351120000000     0.948250000000     0.629170000000     0.0462547  
H95      H      0.308850000000     0.908810000000     0.684600000000     0.0447025  
H96      H      0.400970000000     0.803920000000     0.681450000000     0.0519874  
H97      H      0.661140000000     0.064540000000     0.125650000000     0.0469243  
H98      H      0.703040000000     0.103940000000     0.181460000000     0.0447236  
H99      H      0.615670000000     0.212530000000     0.171080000000     0.05054    
H100     H      0.600530000000     0.194750000000     0.373820000000     0.0470401  
H101     H      0.558760000000     0.155430000000     0.429470000000     0.0448909  
H102     H      0.648950000000     0.048850000000     0.423140000000     0.0501487  
H103     H      0.563160000000     0.351930000000     0.127300000000     0.0466677  
H104     H      0.602320000000     0.309720000000     0.183010000000     0.0446157  
H105     H      0.711470000000     0.396580000000     0.173380000000     0.0506536  
H106     H      0.809260000000     0.113510000000     0.178880000000     0.0474196  
H107     H      0.848460000000     0.071550000000     0.123760000000     0.0448552  
H108     H      0.957720000000     0.158280000000     0.133500000000     0.0506292  
H109     H      0.907840000000     0.316790000000     0.378930000000     0.0475639  
H110     H      0.950010000000     0.356220000000     0.434000000000     0.0452153  
H111     H      0.857440000000     0.460910000000     0.431590000000     0.0505092  
H112     H      0.811900000000     0.103440000000     0.380530000000     0.046436   
H113     H      0.851390000000     0.061450000000     0.436420000000     0.0446722  
H114     H      0.962210000000     0.145600000000     0.422000000000     0.0508074  
H115     H      0.695270000000     0.409230000000     0.376410000000     0.0472289  
H116     H      0.656220000000     0.451380000000     0.431890000000     0.0448351  
H117     H      0.549030000000     0.361790000000     0.426350000000     0.050463   
H118     H      0.851130000000     0.448250000000     0.129170000000     0.0462317  
H119     H      0.808850000000     0.408810000000     0.184600000000     0.0446911  
H120     H      0.900970000000     0.303920000000     0.181450000000     0.0519923  
H121     H      0.661140000000     0.064540000000     0.625650000000     0.0469478  
H122     H      0.703040000000     0.103940000000     0.681460000000     0.04473    
H123     H      0.615670000000     0.212530000000     0.671080000000     0.0505426  
H124     H      0.600530000000     0.194750000000     0.873820000000     0.0470532  
H125     H      0.558760000000     0.155430000000     0.929470000000     0.0449348  
H126     H      0.648950000000     0.048850000000     0.923130000000     0.0501753  
H127     H      0.563160000000     0.351930000000     0.627300000000     0.0466849  
H128     H      0.602320000000     0.309720000000     0.683020000000     0.0446231  
H129     H      0.711470000000     0.396580000000     0.673380000000     0.0506561  
H130     H      0.809260000000     0.113510000000     0.678880000000     0.0474214  
H131     H      0.848460000000     0.071550000000     0.623760000000     0.0448906  
H132     H      0.957720000000     0.158280000000     0.633500000000     0.0506426  
H133     H      0.907840000000     0.316790000000     0.878930000000     0.0475723  
H134     H      0.950010000000     0.356220000000     0.934000000000     0.0452504  
H135     H      0.857440000000     0.460910000000     0.931590000000     0.0505391  
H136     H      0.811900000000     0.103440000000     0.880530000000     0.0464522  
H137     H      0.851390000000     0.061450000000     0.936410000000     0.0447166  
H138     H      0.962210000000     0.145600000000     0.922000000000     0.0508326  
H139     H      0.695270000000     0.409230000000     0.876410000000     0.04725    
H140     H      0.656220000000     0.451380000000     0.931890000000     0.0448775  
H141     H      0.549030000000     0.361790000000     0.926350000000     0.0504945  
H142     H      0.851130000000     0.448250000000     0.629170000000     0.0462556  
H143     H      0.808850000000     0.408810000000     0.684600000000     0.0446939  
H144     H      0.900970000000     0.303920000000     0.681450000000     0.051995   
H145     H      0.661140000000     0.564540000000     0.125650000000     0.0469449  
H146     H      0.703040000000     0.603950000000     0.181460000000     0.0447433  
H147     H      0.615670000000     0.712530000000     0.171080000000     0.0505397  
H148     H      0.600530000000     0.694750000000     0.373820000000     0.047048   
H149     H      0.558760000000     0.655430000000     0.429470000000     0.0448871  
H150     H      0.648950000000     0.548850000000     0.423140000000     0.0501766  
H151     H      0.563160000000     0.851920000000     0.127300000000     0.0466599  
H152     H      0.602320000000     0.809720000000     0.183010000000     0.0446171  
H153     H      0.711470000000     0.896580000000     0.173380000000     0.0506571  
H154     H      0.809260000000     0.613510000000     0.178880000000     0.0474276  
H155     H      0.848460000000     0.571550000000     0.123760000000     0.0448753  
H156     H      0.957720000000     0.658280000000     0.133500000000     0.0506354  
H157     H      0.907840000000     0.816790000000     0.378930000000     0.0475637  
H158     H      0.950010000000     0.856220000000     0.434000000000     0.0452154  
H159     H      0.857440000000     0.960910000000     0.431590000000     0.050532   
H160     H      0.811900000000     0.603440000000     0.380530000000     0.0464445  
H161     H      0.851390000000     0.561450000000     0.436420000000     0.0446938  
H162     H      0.962210000000     0.645600000000     0.422000000000     0.0508089  
H163     H      0.695270000000     0.909240000000     0.376410000000     0.047203   
H164     H      0.656220000000     0.951380000000     0.431890000000     0.044865   
H165     H      0.549030000000     0.861790000000     0.426350000000     0.0504629  
H166     H      0.851130000000     0.948250000000     0.129170000000     0.0462527  
H167     H      0.808850000000     0.908810000000     0.184600000000     0.0446946  
H168     H      0.900970000000     0.803920000000     0.181450000000     0.0519901  
H169     H      0.661140000000     0.564540000000     0.625650000000     0.0469684  
H170     H      0.703040000000     0.603950000000     0.681460000000     0.0447497  
H171     H      0.615670000000     0.712530000000     0.671080000000     0.0505422  
H172     H      0.600530000000     0.694750000000     0.873820000000     0.0470611  
H173     H      0.558760000000     0.655430000000     0.929470000000     0.044931   
H174     H      0.648950000000     0.548850000000     0.923130000000     0.0502031  
H175     H      0.563160000000     0.851920000000     0.627300000000     0.0466771  
H176     H      0.602320000000     0.809720000000     0.683020000000     0.0446245  
H177     H      0.711470000000     0.896580000000     0.673380000000     0.0506596  
H178     H      0.809260000000     0.613510000000     0.678880000000     0.0474295  
H179     H      0.848460000000     0.571550000000     0.623760000000     0.0449107  
H180     H      0.957720000000     0.658280000000     0.633500000000     0.0506488  
H181     H      0.907840000000     0.816790000000     0.878930000000     0.0475722  
H182     H      0.950010000000     0.856220000000     0.934000000000     0.0452505  
H183     H      0.857440000000     0.960910000000     0.931590000000     0.0505618  
H184     H      0.811900000000     0.603440000000     0.880530000000     0.0464607  
H185     H      0.851390000000     0.561450000000     0.936410000000     0.0447382  
H186     H      0.962210000000     0.645600000000     0.922000000000     0.0508342  
H187     H      0.695270000000     0.909240000000     0.876410000000     0.0472241  
H188     H      0.656220000000     0.951380000000     0.931890000000     0.0449074  
H189     H      0.549030000000     0.861790000000     0.926350000000     0.0504944  
H190     H      0.851130000000     0.948250000000     0.629170000000     0.0462765  
H191     H      0.808850000000     0.908810000000     0.684600000000     0.0446974  
H192     H      0.900970000000     0.803920000000     0.681450000000     0.0519928  
N1       N      0.161500000000     0.160570000000     0.181560000000    -0.169933   
N2       N      0.112380000000     0.114810000000     0.115720000000    -0.173967   
N3       N      0.101660000000     0.099820000000     0.431560000000    -0.169735   
N4       N      0.150800000000     0.145640000000     0.365810000000    -0.17418    
N5       N      0.159250000000     0.350950000000     0.183450000000    -0.169668   
N6       N      0.113730000000     0.400420000000     0.117730000000    -0.174183   
N7       N      0.406020000000     0.111950000000     0.124420000000    -0.171361   
N8       N      0.360360000000     0.161210000000     0.190200000000    -0.173166   
N9       N      0.406280000000     0.411110000000     0.437640000000    -0.169947   
N10      N      0.356490000000     0.365060000000     0.372530000000    -0.174087   
N11      N      0.409190000000     0.101410000000     0.434550000000    -0.169502   
N12      N      0.363360000000     0.150470000000     0.368780000000    -0.174343   
N13      N      0.100220000000     0.408960000000     0.434200000000    -0.169854   
N14      N      0.145780000000     0.359280000000     0.368700000000    -0.174151   
N15      N      0.352350000000     0.353770000000     0.187860000000    -0.169506   
N16      N      0.402020000000     0.399630000000     0.122390000000    -0.174112   
N17      N      0.161500000000     0.160570000000     0.681560000000    -0.169933   
N18      N      0.112380000000     0.114810000000     0.615720000000    -0.173933   
N19      N      0.101660000000     0.099820000000     0.931560000000    -0.169676   
N20      N      0.150800000000     0.145640000000     0.865810000000    -0.174177   
N21      N      0.159250000000     0.350950000000     0.683450000000    -0.169669   
N22      N      0.113730000000     0.400420000000     0.617730000000    -0.17418    
N23      N      0.406020000000     0.111950000000     0.624420000000    -0.171358   
N24      N      0.360360000000     0.161210000000     0.690200000000    -0.173171   
N25      N      0.406280000000     0.411110000000     0.937640000000    -0.169926   
N26      N      0.356490000000     0.365060000000     0.872530000000    -0.174088   
N27      N      0.409190000000     0.101410000000     0.934550000000    -0.169469   
N28      N      0.363360000000     0.150470000000     0.868780000000    -0.174339   
N29      N      0.100220000000     0.408960000000     0.934200000000    -0.169837   
N30      N      0.145780000000     0.359280000000     0.868700000000    -0.17414    
N31      N      0.352350000000     0.353770000000     0.687860000000    -0.169501   
N32      N      0.402020000000     0.399630000000     0.622390000000    -0.174108   
N33      N      0.161500000000     0.660570000000     0.181560000000    -0.16993    
N34      N      0.112380000000     0.614810000000     0.115720000000    -0.173966   
N35      N      0.101660000000     0.599820000000     0.431560000000    -0.169732   
N36      N      0.150800000000     0.645630000000     0.365810000000    -0.174152   
N37      N      0.159250000000     0.850950000000     0.183450000000    -0.169668   
N38      N      0.113730000000     0.900420000000     0.117730000000    -0.174178   
N39      N      0.406020000000     0.611950000000     0.124420000000    -0.171341   
N40      N      0.360360000000     0.661210000000     0.190200000000    -0.173165   
N41      N      0.406280000000     0.911110000000     0.437640000000    -0.169943   
N42      N      0.356490000000     0.865060000000     0.372530000000    -0.174086   
N43      N      0.409190000000     0.601410000000     0.434550000000    -0.169498   
N44      N      0.363360000000     0.650470000000     0.368780000000    -0.174342   
N45      N      0.100220000000     0.908960000000     0.434200000000    -0.169866   
N46      N      0.145780000000     0.859280000000     0.368700000000    -0.17419    
N47      N      0.352350000000     0.853770000000     0.187860000000    -0.169526   
N48      N      0.402020000000     0.899630000000     0.122390000000    -0.174107   
N49      N      0.161500000000     0.660570000000     0.681560000000    -0.16993    
N50      N      0.112380000000     0.614810000000     0.615720000000    -0.173932   
N51      N      0.101660000000     0.599820000000     0.931560000000    -0.169673   
N52      N      0.150800000000     0.645630000000     0.865810000000    -0.174149   
N53      N      0.159250000000     0.850950000000     0.683450000000    -0.169669   
N54      N      0.113730000000     0.900420000000     0.617730000000    -0.174175   
N55      N      0.406020000000     0.611950000000     0.624420000000    -0.171338   
N56      N      0.360360000000     0.661210000000     0.690200000000    -0.17317    
N57      N      0.406280000000     0.911110000000     0.937640000000    -0.169922   
N58      N      0.356490000000     0.865060000000     0.872530000000    -0.174087   
N59      N      0.409190000000     0.601410000000     0.934550000000    -0.169465   
N60      N      0.363360000000     0.650470000000     0.868780000000    -0.174338   
N61      N      0.100220000000     0.908960000000     0.934200000000    -0.16985    
N62      N      0.145780000000     0.859280000000     0.868700000000    -0.17418    
N63      N      0.352350000000     0.853770000000     0.687860000000    -0.169522   
N64      N      0.402020000000     0.899630000000     0.622390000000    -0.174103   
N65      N      0.661500000000     0.160570000000     0.181560000000    -0.169933   
N66      N      0.612380000000     0.114810000000     0.115720000000    -0.173963   
N67      N      0.601660000000     0.099820000000     0.431560000000    -0.169731   
N68      N      0.650800000000     0.145640000000     0.365810000000    -0.174184   
N69      N      0.659250000000     0.350950000000     0.183450000000    -0.169656   
N70      N      0.613730000000     0.400420000000     0.117730000000    -0.174184   
N71      N      0.906020000000     0.111950000000     0.124420000000    -0.171314   
N72      N      0.860370000000     0.161210000000     0.190200000000    -0.173121   
N73      N      0.906280000000     0.411110000000     0.437640000000    -0.169945   
N74      N      0.856490000000     0.365060000000     0.372530000000    -0.17409    
N75      N      0.909190000000     0.101410000000     0.434550000000    -0.169498   
N76      N      0.863360000000     0.150470000000     0.368780000000    -0.174291   
N77      N      0.600220000000     0.408960000000     0.434200000000    -0.169851   
N78      N      0.645780000000     0.359280000000     0.368700000000    -0.174174   
N79      N      0.852350000000     0.353770000000     0.187860000000    -0.169509   
N80      N      0.902030000000     0.399630000000     0.122390000000    -0.174126   
N81      N      0.661500000000     0.160570000000     0.681560000000    -0.169934   
N82      N      0.612380000000     0.114810000000     0.615720000000    -0.173929   
N83      N      0.601660000000     0.099820000000     0.931560000000    -0.169672   
N84      N      0.650800000000     0.145640000000     0.865810000000    -0.174182   
N85      N      0.659250000000     0.350950000000     0.683450000000    -0.169657   
N86      N      0.613730000000     0.400420000000     0.617730000000    -0.174181   
N87      N      0.906020000000     0.111950000000     0.624420000000    -0.171311   
N88      N      0.860370000000     0.161210000000     0.690200000000    -0.173126   
N89      N      0.906280000000     0.411110000000     0.937640000000    -0.169924   
N90      N      0.856490000000     0.365060000000     0.872530000000    -0.174091   
N91      N      0.909190000000     0.101410000000     0.934550000000    -0.169465   
N92      N      0.863360000000     0.150470000000     0.868780000000    -0.174287   
N93      N      0.600220000000     0.408960000000     0.934200000000    -0.169834   
N94      N      0.645780000000     0.359280000000     0.868700000000    -0.174163   
N95      N      0.852350000000     0.353770000000     0.687860000000    -0.169504   
N96      N      0.902030000000     0.399630000000     0.622390000000    -0.174122   
N97      N      0.661500000000     0.660570000000     0.181560000000    -0.16993    
N98      N      0.612380000000     0.614810000000     0.115720000000    -0.173962   
N99      N      0.601660000000     0.599820000000     0.431560000000    -0.169728   
N100     N      0.650800000000     0.645630000000     0.365810000000    -0.174156   
N101     N      0.659250000000     0.850950000000     0.183450000000    -0.169656   
N102     N      0.613730000000     0.900420000000     0.117730000000    -0.17418    
N103     N      0.906020000000     0.611950000000     0.124420000000    -0.171294   
N104     N      0.860370000000     0.661210000000     0.190200000000    -0.173121   
N105     N      0.906280000000     0.911110000000     0.437640000000    -0.169941   
N106     N      0.856490000000     0.865060000000     0.372530000000    -0.174089   
N107     N      0.909190000000     0.601410000000     0.434550000000    -0.169495   
N108     N      0.863360000000     0.650470000000     0.368780000000    -0.17429    
N109     N      0.600220000000     0.908960000000     0.434200000000    -0.169863   
N110     N      0.645780000000     0.859280000000     0.368700000000    -0.174213   
N111     N      0.852350000000     0.853770000000     0.187860000000    -0.169529   
N112     N      0.902030000000     0.899630000000     0.122390000000    -0.174121   
N113     N      0.661500000000     0.660570000000     0.681560000000    -0.169931   
N114     N      0.612380000000     0.614810000000     0.615720000000    -0.173928   
N115     N      0.601660000000     0.599820000000     0.931560000000    -0.169669   
N116     N      0.650800000000     0.645630000000     0.865810000000    -0.174154   
N117     N      0.659250000000     0.850950000000     0.683450000000    -0.169657   
N118     N      0.613730000000     0.900420000000     0.617730000000    -0.174177   
N119     N      0.906020000000     0.611950000000     0.624420000000    -0.17129    
N120     N      0.860370000000     0.661210000000     0.690200000000    -0.173126   
N121     N      0.906280000000     0.911110000000     0.937640000000    -0.16992    
N122     N      0.856490000000     0.865060000000     0.872530000000    -0.17409    
N123     N      0.909190000000     0.601410000000     0.934550000000    -0.169462   
N124     N      0.863360000000     0.650470000000     0.868780000000    -0.174287   
N125     N      0.600220000000     0.908960000000     0.934200000000    -0.169847   
N126     N      0.645780000000     0.859280000000     0.868700000000    -0.174203   
N127     N      0.852350000000     0.853770000000     0.687860000000    -0.169525   
N128     N      0.902030000000     0.899630000000     0.622390000000    -0.174117   
O1       O      0.465500000000     0.416570000000     0.485990000000    -0.361355   
O2       O      0.044050000000     0.095210000000     0.482060000000    -0.359687   
O3       O      0.413640000000     0.045360000000     0.487100000000    -0.358315   
O4       O      0.095950000000     0.466820000000     0.484360000000    -0.358923   
O5       O      0.468420000000     0.093300000000     0.481870000000    -0.368131   
O6       O      0.042380000000     0.417270000000     0.483430000000    -0.365801   
O7       O      0.094790000000     0.042790000000     0.481990000000    -0.363684   
O8       O      0.414600000000     0.468890000000     0.486820000000    -0.364949   
O9       O      0.050460000000     0.410990000000     0.075530000000    -0.35911    
O10      O      0.466130000000     0.100140000000     0.078840000000    -0.362204   
O11      O      0.411140000000     0.462440000000     0.079230000000    -0.360118   
O12      O      0.101660000000     0.051060000000     0.074550000000    -0.358998   
O13      O      0.049750000000     0.101810000000     0.073490000000    -0.360011   
O14      O      0.463500000000     0.412140000000     0.078120000000    -0.363406   
O15      O      0.100980000000     0.463170000000     0.075830000000    -0.362572   
O16      O      0.412310000000     0.050870000000     0.079270000000    -0.36384    
O17      O      0.506000000000     0.506400000000     0.554360000000    -0.588284   
O18      O      0.293190000000     0.347580000000     0.236350000000    -0.358254   
O19      O      0.218670000000     0.165580000000     0.232780000000    -0.361888   
O20      O      0.349210000000     0.219630000000     0.239290000000    -0.359122   
O21      O      0.163840000000     0.293650000000     0.234370000000    -0.35859    
O22      O      0.298810000000     0.167470000000     0.235500000000    -0.364348   
O23      O      0.217120000000     0.343470000000     0.232710000000    -0.365778   
O24      O      0.167830000000     0.217930000000     0.231430000000    -0.366888   
O25      O      0.344630000000     0.295880000000     0.237030000000    -0.364687   
O26      O      0.208760000000     0.349980000000     0.325980000000    -0.360413   
O27      O      0.300900000000     0.160560000000     0.325250000000    -0.356604   
O28      O      0.348120000000     0.302220000000     0.329570000000    -0.361848   
O29      O      0.160430000000     0.209160000000     0.324150000000    -0.361156   
O30      O      0.213450000000     0.159500000000     0.323790000000    -0.36144    
O31      O      0.295100000000     0.351760000000     0.328150000000    -0.360955   
O32      O      0.159130000000     0.296970000000     0.326010000000    -0.362525   
O33      O      0.349970000000     0.214070000000     0.328670000000    -0.361583   
O34      O      0.254610000000     0.255640000000     0.304420000000    -0.589505   
O35      O      0.465500000000     0.416570000000     0.985990000000    -0.361094   
O36      O      0.044050000000     0.095210000000     0.982060000000    -0.359436   
O37      O      0.413640000000     0.045360000000     0.987100000000    -0.35802    
O38      O      0.095950000000     0.466820000000     0.984350000000    -0.35864    
O39      O      0.468420000000     0.093300000000     0.981870000000    -0.367838   
O40      O      0.042380000000     0.417270000000     0.983420000000    -0.365557   
O41      O      0.094790000000     0.042790000000     0.981990000000    -0.36343    
O42      O      0.414600000000     0.468890000000     0.986820000000    -0.36466    
O43      O      0.050460000000     0.410990000000     0.575530000000    -0.35915    
O44      O      0.466130000000     0.100140000000     0.578840000000    -0.362211   
O45      O      0.411140000000     0.462440000000     0.579230000000    -0.36012    
O46      O      0.101660000000     0.051060000000     0.574550000000    -0.359025   
O47      O      0.049750000000     0.101810000000     0.573490000000    -0.36005    
O48      O      0.463500000000     0.412140000000     0.578120000000    -0.36346    
O49      O      0.100980000000     0.463170000000     0.575840000000    -0.362575   
O50      O      0.412310000000     0.050870000000     0.579270000000    -0.363837   
O51      O      0.506000000000     0.506400000000     0.054360000000    -0.58808    
O52      O      0.293190000000     0.347580000000     0.736360000000    -0.358258   
O53      O      0.218670000000     0.165580000000     0.732780000000    -0.361887   
O54      O      0.349210000000     0.219630000000     0.739290000000    -0.359123   
O55      O      0.163840000000     0.293650000000     0.734370000000    -0.358593   
O56      O      0.298810000000     0.167470000000     0.735500000000    -0.364349   
O57      O      0.217120000000     0.343470000000     0.732710000000    -0.365784   
O58      O      0.167830000000     0.217930000000     0.731430000000    -0.366889   
O59      O      0.344630000000     0.295880000000     0.737030000000    -0.364673   
O60      O      0.208760000000     0.349980000000     0.825980000000    -0.360413   
O61      O      0.300900000000     0.160560000000     0.825250000000    -0.3566     
O62      O      0.348120000000     0.302220000000     0.829570000000    -0.361842   
O63      O      0.160430000000     0.209160000000     0.824150000000    -0.361151   
O64      O      0.213450000000     0.159500000000     0.823790000000    -0.361435   
O65      O      0.295100000000     0.351760000000     0.828150000000    -0.360947   
O66      O      0.159130000000     0.296970000000     0.826010000000    -0.362521   
O67      O      0.349970000000     0.214070000000     0.828670000000    -0.361575   
O68      O      0.254610000000     0.255640000000     0.804420000000    -0.589498   
O69      O      0.465500000000     0.916570000000     0.485990000000    -0.361353   
O70      O      0.044050000000     0.595210000000     0.482060000000    -0.359678   
O71      O      0.413640000000     0.545360000000     0.487100000000    -0.358301   
O72      O      0.095950000000     0.966810000000     0.484360000000    -0.358917   
O73      O      0.468420000000     0.593300000000     0.481870000000    -0.368123   
O74      O      0.042380000000     0.917270000000     0.483430000000    -0.365835   
O75      O      0.094790000000     0.542790000000     0.481990000000    -0.363662   
O76      O      0.414600000000     0.968890000000     0.486820000000    -0.364876   
O77      O      0.050460000000     0.910990000000     0.075530000000    -0.359106   
O78      O      0.466130000000     0.600150000000     0.078840000000    -0.362126   
O79      O      0.411140000000     0.962440000000     0.079230000000    -0.360048   
O80      O      0.101660000000     0.551060000000     0.074550000000    -0.358992   
O81      O      0.049750000000     0.601810000000     0.073490000000    -0.360008   
O82      O      0.463500000000     0.912140000000     0.078120000000    -0.363405   
O83      O      0.100980000000     0.963170000000     0.075830000000    -0.362497   
O84      O      0.412310000000     0.550870000000     0.079270000000    -0.36382    
O85      O      0.506000000000     0.006400000000     0.554360000000    -0.588314   
O86      O      0.293190000000     0.847570000000     0.236350000000    -0.358342   
O87      O      0.218670000000     0.665580000000     0.232780000000    -0.361885   
O88      O      0.349210000000     0.719630000000     0.239290000000    -0.359121   
O89      O      0.163840000000     0.793650000000     0.234370000000    -0.35859    
O90      O      0.298810000000     0.667470000000     0.235500000000    -0.364345   
O91      O      0.217120000000     0.843470000000     0.232710000000    -0.365779   
O92      O      0.167830000000     0.717930000000     0.231430000000    -0.366888   
O93      O      0.344630000000     0.795880000000     0.237030000000    -0.364706   
O94      O      0.208760000000     0.849970000000     0.325980000000    -0.360499   
O95      O      0.300900000000     0.660560000000     0.325250000000    -0.356601   
O96      O      0.348120000000     0.802220000000     0.329570000000    -0.36185    
O97      O      0.160430000000     0.709160000000     0.324150000000    -0.361146   
O98      O      0.213450000000     0.659500000000     0.323790000000    -0.361426   
O99      O      0.295100000000     0.851760000000     0.328150000000    -0.360961   
O100     O      0.159130000000     0.796970000000     0.326010000000    -0.362544   
O101     O      0.349970000000     0.714070000000     0.328670000000    -0.361584   
O102     O      0.254610000000     0.755640000000     0.304420000000    -0.589511   
O103     O      0.465500000000     0.916570000000     0.985990000000    -0.361092   
O104     O      0.044050000000     0.595210000000     0.982060000000    -0.359427   
O105     O      0.413640000000     0.545360000000     0.987100000000    -0.358006   
O106     O      0.095950000000     0.966810000000     0.984350000000    -0.358634   
O107     O      0.468420000000     0.593300000000     0.981870000000    -0.36783    
O108     O      0.042380000000     0.917270000000     0.983420000000    -0.365591   
O109     O      0.094790000000     0.542790000000     0.981990000000    -0.363407   
O110     O      0.414600000000     0.968890000000     0.986820000000    -0.364587   
O111     O      0.050460000000     0.910990000000     0.575530000000    -0.359146   
O112     O      0.466130000000     0.600150000000     0.578840000000    -0.362133   
O113     O      0.411140000000     0.962440000000     0.579230000000    -0.36005    
O114     O      0.101660000000     0.551060000000     0.574550000000    -0.35902    
O115     O      0.049750000000     0.601810000000     0.573490000000    -0.360047   
O116     O      0.463500000000     0.912140000000     0.578120000000    -0.363459   
O117     O      0.100980000000     0.963170000000     0.575840000000    -0.3625     
O118     O      0.412310000000     0.550870000000     0.579270000000    -0.363817   
O119     O      0.506000000000     0.006400000000     0.054360000000    -0.58811    
O120     O      0.293190000000     0.847570000000     0.736360000000    -0.358346   
O121     O      0.218670000000     0.665580000000     0.732780000000    -0.361885   
O122     O      0.349210000000     0.719630000000     0.739290000000    -0.359122   
O123     O      0.163840000000     0.793650000000     0.734370000000    -0.358593   
O124     O      0.298810000000     0.667470000000     0.735500000000    -0.364345   
O125     O      0.217120000000     0.843470000000     0.732710000000    -0.365785   
O126     O      0.167830000000     0.717930000000     0.731430000000    -0.366889   
O127     O      0.344630000000     0.795880000000     0.737030000000    -0.364692   
O128     O      0.208760000000     0.849970000000     0.825980000000    -0.360498   
O129     O      0.300900000000     0.660560000000     0.825250000000    -0.356597   
O130     O      0.348120000000     0.802220000000     0.829570000000    -0.361843   
O131     O      0.160430000000     0.709160000000     0.824150000000    -0.361141   
O132     O      0.213450000000     0.659500000000     0.823790000000    -0.361421   
O133     O      0.295100000000     0.851760000000     0.828150000000    -0.360954   
O134     O      0.159130000000     0.796970000000     0.826010000000    -0.36254    
O135     O      0.349970000000     0.714070000000     0.828670000000    -0.361576   
O136     O      0.254610000000     0.755640000000     0.804420000000    -0.589504   
O137     O      0.965500000000     0.416570000000     0.485990000000    -0.361278   
O138     O      0.544050000000     0.095210000000     0.482060000000    -0.359675   
O139     O      0.913640000000     0.045360000000     0.487100000000    -0.358309   
O140     O      0.595950000000     0.466820000000     0.484360000000    -0.358921   
O141     O      0.968420000000     0.093300000000     0.481870000000    -0.368051   
O142     O      0.542380000000     0.417270000000     0.483430000000    -0.365787   
O143     O      0.594790000000     0.042790000000     0.481990000000    -0.363682   
O144     O      0.914600000000     0.468890000000     0.486820000000    -0.36494    
O145     O      0.550460000000     0.410990000000     0.075530000000    -0.359101   
O146     O      0.966130000000     0.100140000000     0.078840000000    -0.362107   
O147     O      0.911140000000     0.462440000000     0.079230000000    -0.360126   
O148     O      0.601660000000     0.051060000000     0.074550000000    -0.358997   
O149     O      0.549750000000     0.101810000000     0.073490000000    -0.360005   
O150     O      0.963500000000     0.412140000000     0.078120000000    -0.363342   
O151     O      0.600980000000     0.463170000000     0.075830000000    -0.36257    
O152     O      0.912300000000     0.050870000000     0.079270000000    -0.363751   
O153     O      0.006000000000     0.506400000000     0.554360000000    -0.588314   
O154     O      0.793190000000     0.347580000000     0.236350000000    -0.358255   
O155     O      0.718670000000     0.165580000000     0.232780000000    -0.36189    
O156     O      0.849210000000     0.219630000000     0.239290000000    -0.359096   
O157     O      0.663840000000     0.293650000000     0.234370000000    -0.358586   
O158     O      0.798810000000     0.167470000000     0.235500000000    -0.364421   
O159     O      0.717120000000     0.343470000000     0.232710000000    -0.365777   
O160     O      0.667830000000     0.217930000000     0.231430000000    -0.366887   
O161     O      0.844630000000     0.295880000000     0.237030000000    -0.364685   
O162     O      0.708760000000     0.349980000000     0.325980000000    -0.360332   
O163     O      0.800890000000     0.160560000000     0.325250000000    -0.356615   
O164     O      0.848120000000     0.302220000000     0.329570000000    -0.361857   
O165     O      0.660430000000     0.209160000000     0.324150000000    -0.361153   
O166     O      0.713450000000     0.159500000000     0.323790000000    -0.361437   
O167     O      0.795100000000     0.351760000000     0.328150000000    -0.360872   
O168     O      0.659130000000     0.296970000000     0.326010000000    -0.362533   
O169     O      0.849970000000     0.214070000000     0.328670000000    -0.361532   
O170     O      0.754610000000     0.255640000000     0.304420000000    -0.589505   
O171     O      0.965500000000     0.416570000000     0.985990000000    -0.361018   
O172     O      0.544050000000     0.095210000000     0.982060000000    -0.359423   
O173     O      0.913640000000     0.045360000000     0.987100000000    -0.358014   
O174     O      0.595950000000     0.466820000000     0.984350000000    -0.358638   
O175     O      0.968420000000     0.093300000000     0.981870000000    -0.367758   
O176     O      0.542380000000     0.417270000000     0.983420000000    -0.365543   
O177     O      0.594790000000     0.042790000000     0.981990000000    -0.363427   
O178     O      0.914600000000     0.468890000000     0.986820000000    -0.364651   
O179     O      0.550460000000     0.410990000000     0.575530000000    -0.359142   
O180     O      0.966130000000     0.100140000000     0.578840000000    -0.362114   
O181     O      0.911140000000     0.462440000000     0.579230000000    -0.360128   
O182     O      0.601660000000     0.051060000000     0.574550000000    -0.359024   
O183     O      0.549750000000     0.101810000000     0.573490000000    -0.360044   
O184     O      0.963500000000     0.412140000000     0.578120000000    -0.363396   
O185     O      0.600980000000     0.463170000000     0.575840000000    -0.362573   
O186     O      0.912300000000     0.050870000000     0.579270000000    -0.363748   
O187     O      0.006000000000     0.506400000000     0.054360000000    -0.58811    
O188     O      0.793190000000     0.347580000000     0.736360000000    -0.358259   
O189     O      0.718670000000     0.165580000000     0.732780000000    -0.36189    
O190     O      0.849210000000     0.219630000000     0.739290000000    -0.359097   
O191     O      0.663840000000     0.293650000000     0.734370000000    -0.358589   
O192     O      0.798810000000     0.167470000000     0.735500000000    -0.364422   
O193     O      0.717120000000     0.343470000000     0.732710000000    -0.365783   
O194     O      0.667830000000     0.217930000000     0.731430000000    -0.366887   
O195     O      0.844630000000     0.295880000000     0.737030000000    -0.364671   
O196     O      0.708760000000     0.349980000000     0.825980000000    -0.360332   
O197     O      0.800890000000     0.160560000000     0.825250000000    -0.356611   
O198     O      0.848120000000     0.302220000000     0.829570000000    -0.36185    
O199     O      0.660430000000     0.209160000000     0.824150000000    -0.361148   
O200     O      0.713450000000     0.159500000000     0.823790000000    -0.361432   
O201     O      0.795100000000     0.351760000000     0.828150000000    -0.360864   
O202     O      0.659130000000     0.296970000000     0.826010000000    -0.362529   
O203     O      0.849970000000     0.214070000000     0.828670000000    -0.361525   
O204     O      0.754610000000     0.255640000000     0.804420000000    -0.589498   
O205     O      0.965500000000     0.916570000000     0.485990000000    -0.361277   
O206     O      0.544050000000     0.595210000000     0.482060000000    -0.359666   
O207     O      0.913640000000     0.545360000000     0.487100000000    -0.358294   
O208     O      0.595950000000     0.966810000000     0.484360000000    -0.358915   
O209     O      0.968420000000     0.593300000000     0.481870000000    -0.368043   
O210     O      0.542380000000     0.917270000000     0.483430000000    -0.365821   
O211     O      0.594790000000     0.542790000000     0.481990000000    -0.363659   
O212     O      0.914600000000     0.968890000000     0.486820000000    -0.364867   
O213     O      0.550460000000     0.910990000000     0.075530000000    -0.359097   
O214     O      0.966130000000     0.600150000000     0.078840000000    -0.36203    
O215     O      0.911140000000     0.962440000000     0.079230000000    -0.360056   
O216     O      0.601660000000     0.551060000000     0.074550000000    -0.358991   
O217     O      0.549750000000     0.601810000000     0.073490000000    -0.360002   
O218     O      0.963500000000     0.912140000000     0.078120000000    -0.363341   
O219     O      0.600980000000     0.963170000000     0.075830000000    -0.362495   
O220     O      0.912300000000     0.550870000000     0.079270000000    -0.36373    
O221     O      0.006000000000     0.006400000000     0.554360000000    -0.588345   
O222     O      0.793190000000     0.847570000000     0.236350000000    -0.358343   
O223     O      0.718670000000     0.665580000000     0.232780000000    -0.361888   
O224     O      0.849210000000     0.719630000000     0.239290000000    -0.359095   
O225     O      0.663840000000     0.793650000000     0.234370000000    -0.358586   
O226     O      0.798810000000     0.667470000000     0.235500000000    -0.364418   
O227     O      0.717120000000     0.843470000000     0.232710000000    -0.365778   
O228     O      0.667830000000     0.717930000000     0.231430000000    -0.366887   
O229     O      0.844630000000     0.795880000000     0.237030000000    -0.364704   
O230     O      0.708760000000     0.849970000000     0.325980000000    -0.360417   
O231     O      0.800890000000     0.660560000000     0.325250000000    -0.356612   
O232     O      0.848120000000     0.802220000000     0.329570000000    -0.361858   
O233     O      0.660430000000     0.709160000000     0.324150000000    -0.361143   
O234     O      0.713450000000     0.659500000000     0.323790000000    -0.361422   
O235     O      0.795100000000     0.851760000000     0.328150000000    -0.360878   
O236     O      0.659130000000     0.796970000000     0.326010000000    -0.362552   
O237     O      0.849970000000     0.714070000000     0.328670000000    -0.361533   
O238     O      0.754610000000     0.755640000000     0.304420000000    -0.589511   
O239     O      0.965500000000     0.916570000000     0.985990000000    -0.361016   
O240     O      0.544050000000     0.595210000000     0.982060000000    -0.359414   
O241     O      0.913640000000     0.545360000000     0.987100000000    -0.357999   
O242     O      0.595950000000     0.966810000000     0.984350000000    -0.358632   
O243     O      0.968420000000     0.593300000000     0.981870000000    -0.36775    
O244     O      0.542380000000     0.917270000000     0.983420000000    -0.365577   
O245     O      0.594790000000     0.542790000000     0.981990000000    -0.363404   
O246     O      0.914600000000     0.968890000000     0.986820000000    -0.364578   
O247     O      0.550460000000     0.910990000000     0.575530000000    -0.359138   
O248     O      0.966130000000     0.600150000000     0.578840000000    -0.362037   
O249     O      0.911140000000     0.962440000000     0.579230000000    -0.360058   
O250     O      0.601660000000     0.551060000000     0.574550000000    -0.359018   
O251     O      0.549750000000     0.601810000000     0.573490000000    -0.360041   
O252     O      0.963500000000     0.912140000000     0.578120000000    -0.363395   
O253     O      0.600980000000     0.963170000000     0.575840000000    -0.362498   
O254     O      0.912300000000     0.550870000000     0.579270000000    -0.363727   
O255     O      0.006000000000     0.006400000000     0.054360000000    -0.588141   
O256     O      0.793190000000     0.847570000000     0.736360000000    -0.358347   
O257     O      0.718670000000     0.665580000000     0.732780000000    -0.361887   
O258     O      0.849210000000     0.719630000000     0.739290000000    -0.359096   
O259     O      0.663840000000     0.793650000000     0.734370000000    -0.358589   
O260     O      0.798810000000     0.667470000000     0.735500000000    -0.364418   
O261     O      0.717120000000     0.843470000000     0.732710000000    -0.365784   
O262     O      0.667830000000     0.717930000000     0.731430000000    -0.366887   
O263     O      0.844630000000     0.795880000000     0.737030000000    -0.364691   
O264     O      0.708760000000     0.849970000000     0.825980000000    -0.360417   
O265     O      0.800890000000     0.660560000000     0.825250000000    -0.356608   
O266     O      0.848120000000     0.802220000000     0.829570000000    -0.361851   
O267     O      0.660430000000     0.709160000000     0.824150000000    -0.361138   
O268     O      0.713450000000     0.659500000000     0.823790000000    -0.361418   
O269     O      0.795100000000     0.851760000000     0.828150000000    -0.360871   
O270     O      0.659130000000     0.796970000000     0.826010000000    -0.362548   
O271     O      0.849970000000     0.714070000000     0.828670000000    -0.361526   
O272     O      0.754610000000     0.755640000000     0.804420000000    -0.589504   
S1       S      0.062420000000     0.184630000000     0.104690000000     0.0171299  
S2       S      0.203030000000     0.077160000000     0.357470000000     0.0169368  
S3       S      0.183880000000     0.450070000000     0.107100000000     0.016881   
S4       S      0.429670000000     0.212220000000     0.199410000000     0.0170114  
S5       S      0.301410000000     0.431690000000     0.368290000000     0.0165241  
S6       S      0.434460000000     0.197660000000     0.354430000000     0.0170937  
S7       S      0.077260000000     0.306880000000     0.361510000000     0.0165672  
S8       S      0.456300000000     0.332280000000     0.117480000000     0.017375   
S9       S      0.062420000000     0.184630000000     0.604690000000     0.0172829  
S10      S      0.203030000000     0.077160000000     0.857470000000     0.0169623  
S11      S      0.183880000000     0.450070000000     0.607100000000     0.0170352  
S12      S      0.429670000000     0.212220000000     0.699410000000     0.0170161  
S13      S      0.301410000000     0.431690000000     0.868290000000     0.016562   
S14      S      0.434460000000     0.197660000000     0.854430000000     0.0171151  
S15      S      0.077260000000     0.306880000000     0.861510000000     0.0165995  
S16      S      0.456300000000     0.332280000000     0.617480000000     0.0174951  
S17      S      0.062420000000     0.684630000000     0.104690000000     0.0171303  
S18      S      0.203030000000     0.577160000000     0.357470000000     0.0169744  
S19      S      0.183880000000     0.950070000000     0.107100000000     0.0169418  
S20      S      0.429670000000     0.712220000000     0.199410000000     0.0170138  
S21      S      0.301410000000     0.931690000000     0.368290000000     0.0165672  
S22      S      0.434460000000     0.697660000000     0.354430000000     0.0170973  
S23      S      0.077260000000     0.806880000000     0.361510000000     0.0165661  
S24      S      0.456300000000     0.832280000000     0.117480000000     0.0173758  
S25      S      0.062420000000     0.684630000000     0.604690000000     0.0172832  
S26      S      0.203030000000     0.577160000000     0.857470000000     0.017      
S27      S      0.183880000000     0.950070000000     0.607100000000     0.017096   
S28      S      0.429670000000     0.712220000000     0.699410000000     0.0170185  
S29      S      0.301410000000     0.931690000000     0.868290000000     0.0166051  
S30      S      0.434460000000     0.697660000000     0.854430000000     0.0171187  
S31      S      0.077260000000     0.806880000000     0.861510000000     0.0165984  
S32      S      0.456300000000     0.832280000000     0.617480000000     0.0174959  
S33      S      0.562420000000     0.184630000000     0.104690000000     0.0171921  
S34      S      0.703030000000     0.077160000000     0.357470000000     0.0169454  
S35      S      0.683890000000     0.450070000000     0.107100000000     0.0168681  
S36      S      0.929670000000     0.212220000000     0.199410000000     0.0170468  
S37      S      0.801410000000     0.431690000000     0.368290000000     0.0165218  
S38      S      0.934460000000     0.197660000000     0.354430000000     0.0171531  
S39      S      0.577260000000     0.306880000000     0.361510000000     0.016611   
S40      S      0.956300000000     0.332280000000     0.117480000000     0.0174413  
S41      S      0.562420000000     0.184630000000     0.604690000000     0.0173451  
S42      S      0.703030000000     0.077160000000     0.857470000000     0.016971   
S43      S      0.683890000000     0.450070000000     0.607100000000     0.0170223  
S44      S      0.929670000000     0.212220000000     0.699410000000     0.0170515  
S45      S      0.801410000000     0.431690000000     0.868290000000     0.0165597  
S46      S      0.934460000000     0.197660000000     0.854430000000     0.0171745  
S47      S      0.577260000000     0.306880000000     0.861510000000     0.0166434  
S48      S      0.956300000000     0.332280000000     0.617480000000     0.0175614  
S49      S      0.562420000000     0.684630000000     0.104690000000     0.0171924  
S50      S      0.703030000000     0.577160000000     0.357470000000     0.0169831  
S51      S      0.683890000000     0.950070000000     0.107100000000     0.0169289  
S52      S      0.929670000000     0.712220000000     0.199410000000     0.0170492  
S53      S      0.801410000000     0.931690000000     0.368290000000     0.0165648  
S54      S      0.934460000000     0.697660000000     0.354430000000     0.0171567  
S55      S      0.577260000000     0.806880000000     0.361510000000     0.0166099  
S56      S      0.956300000000     0.832280000000     0.117480000000     0.0174422  
S57      S      0.562420000000     0.684630000000     0.604690000000     0.0173454  
S58      S      0.703030000000     0.577160000000     0.857470000000     0.0170086  
S59      S      0.683890000000     0.950070000000     0.607100000000     0.0170831  
S60      S      0.929670000000     0.712220000000     0.699410000000     0.0170539  
S61      S      0.801410000000     0.931690000000     0.868290000000     0.0166027  
S62      S      0.934460000000     0.697660000000     0.854430000000     0.0171781  
S63      S      0.577260000000     0.806880000000     0.861510000000     0.0166423  
S64      S      0.956300000000     0.832280000000     0.617480000000     0.0175622  


