data_structure

_audit_creation_method RASPA-1.0
_audit_creation_date 2023-5-9
_audit_author_name 'Poobodin Mano'

_cell_length_a    38.3592
_cell_length_b    37.5839
_cell_length_c    35.5691
_cell_angle_alpha 90
_cell_angle_beta  90
_cell_angle_gamma 90
_cell_volume      51279.6

_symmetry_cell_setting          triclinic
_symmetry_space_group_name_Hall 'P 1'
_symmetry_space_group_name_H-M  'P 1'
_symmetry_Int_Tables_number     1

_symmetry_equiv_pos_as_xyz 'x,y,z'

loop_
_atom_site_label
_atom_site_type_symbol
_atom_site_fract_x
_atom_site_fract_y
_atom_site_fract_z
_atom_site_charge
C1       C      0.164620000000     0.129690000000     0.307560000000     0.411574   
C2       C      0.573380000000     0.525510000000     0.448680000000     0.414429   
C3       C      0.157480000000     0.052290000000     0.434330000000     0.406063   
C4       C      0.554120000000     0.544150000000     0.296180000000     0.408019   
C5       C      0.490410000000     0.590750000000     0.331370000000     0.409179   
C6       C      0.103300000000     0.132080000000     0.454090000000     0.404535   
C7       C      0.104910000000     0.177750000000     0.355920000000     0.405897   
C8       C      0.504190000000     0.597800000000     0.435940000000     0.412182   
C9       C      0.081210000000     0.268600000000     0.207560000000     0.401085   
C10      C      0.480840000000     0.385280000000     0.639250000000     0.404475   
C11      C      0.094750000000     0.368320000000     0.196380000000     0.398766   
C12      C      0.473550000000     0.266690000000     0.642820000000     0.408532   
C13      C      0.520950000000     0.250740000000     0.562400000000     0.407674   
C14      C      0.144500000000     0.365940000000     0.099250000000     0.41058    
C15      C      0.123560000000     0.235920000000     0.119360000000     0.408285   
C16      C      0.525430000000     0.387200000000     0.552310000000     0.410714   
C17      C      0.374120000000     0.125490000000     0.193110000000     0.407971   
C18      C      0.283910000000     0.488920000000     0.563570000000     0.410527   
C19      C      0.236510000000     0.087060000000     0.147840000000     0.409428   
C20      C      0.401110000000     0.538030000000     0.629960000000     0.410075   
C21      C      0.400920000000     0.589140000000     0.552220000000     0.410353   
C22      C      0.269110000000     0.133130000000     0.078000000000     0.403876   
C23      C      0.354200000000     0.168610000000     0.111210000000     0.40791    
C24      C      0.312280000000     0.551180000000     0.497710000000     0.4068     
C25      C      0.457430000000     0.431940000000     0.681870000000     0.014838   
C26      C      0.431910000000     0.463070000000     0.676490000000    -0.103882   
C27      C      0.440600000000     0.486120000000     0.641980000000     0.018948   
C28      C      0.390210000000     0.215250000000     0.080380000000     0.0210108  
C29      C      0.420730000000     0.219920000000     0.107720000000    -0.105221   
C30      C      0.413040000000     0.247160000000     0.138970000000     0.0221908  
C31      C      0.232870000000     0.448070000000     0.560410000000     0.0166345  
C32      C      0.225700000000     0.417500000000     0.587710000000    -0.110326   
C33      C      0.186710000000     0.409440000000     0.592070000000     0.018518   
C34      C      0.182380000000     0.214790000000     0.102440000000     0.0163326  
C35      C      0.198890000000     0.182460000000     0.083300000000    -0.107979   
C36      C      0.236660000000     0.189800000000     0.071570000000     0.0191529  
C37      C      0.468910000000     0.072630000000     0.442450000000     0.018957   
C38      C      0.477850000000     0.637420000000     0.510440000000    -0.10713    
C39      C      0.436240000000     0.062690000000     0.503380000000     0.0192129  
C40      C      0.219270000000     0.035820000000     0.445200000000     0.0178924  
C41      C      0.248290000000     0.552530000000     0.442870000000    -0.108426   
C42      C      0.280390000000     0.018010000000     0.465790000000     0.0219227  
C43      C      0.187850000000     0.148250000000     0.245550000000     0.0199614  
C44      C      0.195480000000     0.114380000000     0.223070000000    -0.104706   
C45      C      0.190430000000     0.120750000000     0.180980000000     0.0201581  
C46      C      0.426960000000     0.142950000000     0.230200000000     0.0176833  
C47      C      0.442200000000     0.111070000000     0.251560000000    -0.106925   
C48      C      0.441410000000     0.616760000000     0.294420000000     0.0163147  
C49      C      0.532660000000     0.191510000000     0.534060000000     0.0168605  
C50      C      0.057860000000     0.193220000000     0.516450000000    -0.10638    
C51      C      0.587550000000     0.157820000000     0.516070000000     0.0161173  
C52      C      0.581640000000     0.460090000000     0.455100000000     0.0199057  
C53      C      0.549490000000     0.438950000000     0.467410000000    -0.107538   
C54      C      0.546960000000     0.435070000000     0.510380000000     0.0200545  
C55      C      0.556940000000     0.420380000000     0.260960000000     0.0204554  
C56      C      0.078460000000     0.444380000000     0.241900000000    -0.107974   
C57      C      0.540240000000     0.484380000000     0.270110000000     0.0191404  
C58      C      0.580970000000     0.289730000000     0.301930000000     0.0168287  
C59      C      0.116230000000     0.244640000000     0.300500000000    -0.108121   
C60      C      0.584480000000     0.237420000000     0.347550000000     0.0196733  
C61      C      0.169570000000     0.130730000000     0.808050000000     0.413833   
C62      C      0.568290000000     0.516170000000     0.947040000000     0.410454   
C63      C      0.169130000000     0.051120000000     0.937240000000     0.406663   
C64      C      0.552600000000     0.532360000000     0.800670000000     0.405868   
C65      C      0.481640000000     0.578110000000     0.828740000000     0.409696   
C66      C      0.119350000000     0.129980000000     0.958120000000     0.409754   
C67      C      0.113450000000     0.176330000000     0.863900000000     0.408946   
C68      C      0.498860000000     0.594320000000     0.938440000000     0.412308   
C69      C      0.072390000000     0.273930000000     0.729710000000     0.397722   
C70      C      0.492050000000     0.391940000000     0.148340000000     0.400078   
C71      C      0.087250000000     0.375850000000     0.713650000000     0.395607   
C72      C      0.472530000000     0.266030000000     0.156410000000     0.404295   
C73      C      0.523350000000     0.250350000000     0.077840000000     0.405169   
C74      C      0.150250000000     0.366600000000     0.628030000000     0.409617   
C75      C      0.124090000000     0.242620000000     0.637040000000     0.408641   
C76      C      0.531240000000     0.379820000000     0.061230000000     0.409542   
C77      C      0.369620000000     0.136110000000     0.685400000000     0.409555   
C78      C      0.280380000000     0.501940000000     0.078480000000     0.41097    
C79      C      0.229220000000     0.101810000000     0.640390000000     0.410273   
C80      C      0.403530000000     0.547510000000     0.138950000000     0.410358   
C81      C      0.401500000000     0.594850000000     0.059840000000     0.411913   
C82      C      0.265200000000     0.150470000000     0.574060000000     0.407161   
C83      C      0.350720000000     0.175550000000     0.602990000000     0.410099   
C84      C      0.312430000000     0.554010000000     0.009060000000     0.411072   
C85      C      0.476390000000     0.446330000000     0.183710000000     0.0158164  
C86      C      0.447450000000     0.474690000000     0.184890000000    -0.105951   
C87      C      0.444330000000     0.496110000000     0.148110000000     0.0178331  
C88      C      0.388970000000     0.218730000000     0.570130000000     0.0218237  
C89      C      0.420040000000     0.220770000000     0.597090000000    -0.105331   
C90      C      0.413640000000     0.246570000000     0.629980000000     0.0238473  
C91      C      0.227320000000     0.464580000000     0.071700000000     0.0194935  
C92      C      0.218080000000     0.425420000000     0.077870000000    -0.112292   
C93      C      0.179050000000     0.417210000000     0.074580000000     0.0196644  
C94      C      0.182840000000     0.226580000000     0.613880000000     0.0167135  
C95      C      0.197750000000     0.198160000000     0.587600000000    -0.107783   
C96      C      0.234050000000     0.207920000000     0.572810000000     0.0198928  
C97      C      0.454590000000     0.089710000000     0.932760000000     0.0211049  
C98      C      0.478220000000     0.638220000000     0.012240000000    -0.107406   
C99      C      0.435050000000     0.073630000000     0.998850000000     0.0195012  
C100     C      0.230930000000     0.034560000000     0.947700000000     0.0185525  
C101     C      0.247550000000     0.549060000000     0.956210000000    -0.111023   
C102     C      0.292230000000     0.017540000000     0.968150000000     0.0226413  
C103     C      0.187030000000     0.154370000000     0.745740000000     0.0205703  
C104     C      0.192020000000     0.122780000000     0.719100000000    -0.105018   
C105     C      0.185210000000     0.133790000000     0.678360000000     0.0202303  
C106     C      0.423840000000     0.154160000000     0.719690000000     0.018391   
C107     C      0.438560000000     0.122250000000     0.741290000000    -0.107231   
C108     C      0.433660000000     0.601150000000     0.788720000000     0.0159905  
C109     C      0.535920000000     0.192530000000     0.046480000000     0.0155352  
C110     C      0.068330000000     0.188730000000     0.006170000000    -0.102632   
C111     C      0.588140000000     0.158820000000     0.021070000000     0.0167616  
C112     C      0.573820000000     0.450160000000     0.951290000000     0.0192169  
C113     C      0.544750000000     0.429010000000     0.970560000000    -0.108406   
C114     C      0.551910000000     0.422200000000     0.012540000000     0.0207941  
C115     C      0.570620000000     0.408030000000     0.758140000000     0.0210771  
C116     C      0.066810000000     0.454630000000     0.754110000000    -0.108804   
C117     C      0.552270000000     0.469210000000     0.779720000000     0.0172079  
C118     C      0.615670000000     0.278260000000     0.772550000000     0.0185903  
C119     C      0.108970000000     0.256330000000     0.819040000000    -0.105439   
C120     C      0.598580000000     0.245310000000     0.832980000000     0.0229441  
C121     C      0.133450000000     0.618610000000     0.289160000000     0.413739   
C122     C      0.589090000000     0.990640000000     0.411020000000     0.412411   
C123     C      0.155690000000     0.582150000000     0.426960000000     0.408096   
C124     C      0.596940000000     0.053410000000     0.266880000000     0.409263   
C125     C      0.524730000000     0.082290000000     0.300830000000     0.402099   
C126     C      0.089810000000     0.661610000000     0.437750000000     0.403349   
C127     C      0.075120000000     0.677850000000     0.329000000000     0.406322   
C128     C      0.518170000000     0.053790000000     0.401460000000     0.408415   
C129     C      0.027790000000     0.763380000000     0.191620000000     0.405384   
C130     C      0.487830000000     0.893150000000     0.607290000000     0.403622   
C131     C      0.067990000000     0.883220000000     0.179030000000     0.402172   
C132     C      0.468060000000     0.759160000000     0.618290000000     0.410387   
C133     C      0.535040000000     0.757940000000     0.538980000000     0.409082   
C134     C      0.135700000000     0.857470000000     0.126040000000     0.409654   
C135     C      0.108410000000     0.736080000000     0.142810000000     0.409064   
C136     C      0.531410000000     0.867240000000     0.522060000000     0.410471   
C137     C      0.342240000000     0.616140000000     0.208380000000     0.412384   
C138     C      0.266100000000     0.001220000000     0.613590000000     0.414446   
C139     C      0.216430000000     0.581290000000     0.127990000000     0.409733   
C140     C      0.405950000000     0.034350000000     0.645960000000     0.409974   
C141     C      0.395610000000     0.045640000000     0.554180000000     0.411404   
C142     C      0.253410000000     0.655100000000     0.090090000000     0.402472   
C143     C      0.321390000000     0.680750000000     0.145910000000     0.408797   
C144     C      0.304930000000     0.020220000000     0.530210000000     0.410101   
C145     C      0.471650000000     0.956210000000     0.620700000000     0.0165597  
C146     C      0.470830000000     0.965610000000     0.662900000000    -0.0992462  
C147     C      0.436020000000     0.982240000000     0.675390000000     0.0143737  
C148     C      0.346490000000     0.739890000000     0.130540000000     0.0239586  
C149     C      0.380180000000     0.739250000000     0.153410000000    -0.111798   
C150     C      0.407280000000     0.765120000000     0.137610000000     0.0203358  
C151     C      0.211780000000     0.968070000000     0.599870000000     0.0193192  
C152     C      0.202670000000     0.928400000000     0.599840000000    -0.110604   
C153     C      0.174000000000     0.918740000000     0.571660000000     0.0177575  
C154     C      0.171210000000     0.720510000000     0.145380000000     0.0133701  
C155     C      0.185950000000     0.704800000000     0.108870000000    -0.102897   
C156     C      0.224750000000     0.712830000000     0.103250000000     0.0176375  
C157     C      0.466110000000     0.640620000000     0.469150000000     0.0260192  
C158     C      0.452350000000     0.045210000000     0.468620000000    -0.11037    
C159     C      0.447280000000     0.632240000000     0.537650000000     0.0206362  
C160     C      0.220280000000     0.578070000000     0.427630000000     0.0186513  
C161     C      0.241040000000     0.014430000000     0.473620000000    -0.1092     
C162     C      0.285480000000     0.567160000000     0.436640000000     0.0226471  
C163     C      0.145270000000     0.622900000000     0.220560000000     0.0196373  
C164     C      0.165520000000     0.594500000000     0.198630000000    -0.109721   
C165     C      0.160550000000     0.600050000000     0.156300000000     0.0244171  
C166     C      0.387450000000     0.632230000000     0.255920000000     0.0165898  
C167     C      0.404830000000     0.604890000000     0.281760000000    -0.10822    
C168     C      0.480320000000     0.116840000000     0.264100000000     0.0148332  
C169     C      0.567630000000     0.713790000000     0.500640000000     0.0204847  
C170     C      0.023420000000     0.692270000000     0.478170000000    -0.106636   
C171     C      0.633440000000     0.701240000000     0.500790000000     0.018969   
C172     C      0.583690000000     0.924380000000     0.407780000000     0.0183887  
C173     C      0.552130000000     0.906920000000     0.427110000000    -0.10803    
C174     C      0.558380000000     0.899780000000     0.469230000000     0.0196742  
C175     C      0.578290000000     0.949800000000     0.196360000000     0.0167586  
C176     C      0.080500000000     0.971020000000     0.217420000000    -0.108424   
C177     C      0.579520000000     0.014180000000     0.214440000000     0.0222025  
C178     C      0.578300000000     0.801510000000     0.273670000000     0.0187726  
C179     C      0.042610000000     0.760910000000     0.282430000000    -0.107395   
C180     C      0.588160000000     0.740810000000     0.304130000000     0.0200471  
C181     C      0.130940000000     0.595500000000     0.785980000000     0.411623   
C182     C      0.563540000000     0.001530000000     0.911020000000     0.417024   
C183     C      0.157250000000     0.580640000000     0.930230000000     0.407368   
C184     C      0.591460000000     0.057400000000     0.765570000000     0.408658   
C185     C      0.519070000000     0.091360000000     0.791970000000     0.404411   
C186     C      0.127580000000     0.666000000000     0.932700000000     0.411576   
C187     C      0.103590000000     0.681290000000     0.820310000000     0.413932   
C188     C      0.504030000000     0.070630000000     0.892730000000     0.40997    
C189     C      0.053930000000     0.784900000000     0.694400000000     0.394835   
C190     C      0.490740000000     0.890960000000     0.104780000000     0.403161   
C191     C      0.083900000000     0.890770000000     0.665190000000     0.400533   
C192     C      0.471470000000     0.769490000000     0.137500000000     0.406737   
C193     C      0.532900000000     0.748780000000     0.048870000000     0.409312   
C194     C      0.133680000000     0.868910000000     0.586220000000     0.410705   
C195     C      0.106450000000     0.742810000000     0.617100000000     0.411756   
C196     C      0.530790000000     0.860500000000     0.019450000000     0.410734   
C197     C      0.336860000000     0.603600000000     0.698980000000     0.411265   
C198     C      0.285640000000     0.982520000000     0.117620000000     0.413763   
C199     C      0.214030000000     0.568550000000     0.617630000000     0.409469   
C200     C      0.419250000000     0.030850000000     0.147850000000     0.409596   
C201     C      0.404470000000     0.048190000000     0.053810000000     0.411338   
C202     C      0.251310000000     0.641270000000     0.574750000000     0.402873   
C203     C      0.317570000000     0.670440000000     0.632140000000     0.406903   
C204     C      0.316400000000     0.014310000000     0.032750000000     0.407319   
C205     C      0.475160000000     0.954590000000     0.114030000000     0.0177503  
C206     C      0.484420000000     0.964980000000     0.154750000000    -0.0973829  
C207     C      0.453410000000     0.980950000000     0.176360000000     0.0147173  
C208     C      0.341380000000     0.728910000000     0.612070000000     0.0229977  
C209     C      0.375860000000     0.730050000000     0.633550000000    -0.110805   
C210     C      0.404030000000     0.751070000000     0.612380000000     0.0206327  
C211     C      0.231170000000     0.947330000000     0.113920000000     0.0194542  
C212     C      0.218450000000     0.910370000000     0.125730000000    -0.112343   
C213     C      0.181110000000     0.902670000000     0.112730000000     0.0190726  
C214     C      0.167100000000     0.720450000000     0.613790000000     0.0173406  
C215     C      0.184220000000     0.692010000000     0.589220000000    -0.10812    
C216     C      0.222790000000     0.699910000000     0.582480000000     0.0213152  
C217     C      0.464780000000     0.640610000000     0.971480000000     0.0263536  
C218     C      0.449100000000     0.059850000000     0.961310000000    -0.109952   
C219     C      0.448760000000     0.635480000000     0.041170000000     0.0209058  
C220     C      0.220050000000     0.566000000000     0.930300000000     0.0188659  
C221     C      0.252920000000     0.012140000000     0.975050000000    -0.109928   
C222     C      0.284640000000     0.561970000000     0.946580000000     0.0235614  
C223     C      0.139320000000     0.588070000000     0.717620000000     0.019647   
C224     C      0.164900000000     0.569890000000     0.690560000000    -0.111693   
C225     C      0.158200000000     0.581870000000     0.650070000000     0.0247314  
C226     C      0.381260000000     0.616760000000     0.748310000000     0.0158215  
C227     C      0.396930000000     0.589820000000     0.775990000000    -0.10845    
C228     C      0.477110000000     0.126840000000     0.752730000000     0.0152534  
C229     C      0.563470000000     0.700030000000     0.015080000000     0.0190532  
C230     C      0.103970000000     0.734290000000     0.989100000000    -0.101099   
C231     C      0.628880000000     0.688250000000     0.006930000000     0.0187343  
C232     C      0.559240000000     0.935510000000     0.907220000000     0.0189627  
C233     C      0.536060000000     0.908030000000     0.927130000000    -0.110243   
C234     C      0.552190000000     0.893720000000     0.963730000000     0.0197921  
C235     C      0.564160000000     0.952980000000     0.701940000000     0.0167301  
C236     C      0.094910000000     0.976760000000     0.713790000000    -0.108814   
C237     C      0.573700000000     0.018090000000     0.713440000000     0.0218421  
C238     C      0.538810000000     0.790810000000     0.772450000000     0.0196817  
C239     C      0.097460000000     0.771390000000     0.775160000000    -0.106994   
C240     C      0.558920000000     0.732860000000     0.802490000000     0.0204083  
C241     C      0.669150000000     0.133530000000     0.309690000000     0.413857   
C242     C      0.079620000000     0.507030000000     0.436620000000     0.41229    
C243     C      0.667070000000     0.054390000000     0.439020000000     0.40705    
C244     C      0.059120000000     0.527120000000     0.285180000000     0.410809   
C245     C      0.990640000000     0.568920000000     0.321780000000     0.403337   
C246     C      0.616910000000     0.133730000000     0.459020000000     0.409328   
C247     C      0.612500000000     0.179560000000     0.364000000000     0.408922   
C248     C      0.002250000000     0.567980000000     0.426540000000     0.404712   
C249     C      0.566960000000     0.277900000000     0.234690000000     0.397707   
C250     C      0.000480000000     0.396930000000     0.642540000000     0.402278   
C251     C      0.585860000000     0.378660000000     0.216870000000     0.395174   
C252     C      0.975960000000     0.270500000000     0.656710000000     0.404445   
C253     C      0.020290000000     0.252170000000     0.575120000000     0.404387   
C254     C      0.643710000000     0.368950000000     0.130600000000     0.409533   
C255     C      0.621020000000     0.243770000000     0.142280000000     0.407189   
C256     C      0.039660000000     0.377780000000     0.555710000000     0.409157   
C257     C      0.869310000000     0.134680000000     0.183080000000     0.410201   
C258     C      0.761570000000     0.510120000000     0.596840000000     0.412855   
C259     C      0.726740000000     0.105220000000     0.140960000000     0.410496   
C260     C      0.895250000000     0.546910000000     0.644230000000     0.409348   
C261     C      0.894020000000     0.578550000000     0.560820000000     0.414037   
C262     C      0.761800000000     0.153420000000     0.074790000000     0.40846    
C263     C      0.849650000000     0.176440000000     0.101670000000     0.41091    
C264     C      0.803830000000     0.538090000000     0.517090000000     0.416829   
C265     C      0.989370000000     0.457990000000     0.665170000000     0.0156024  
C266     C      0.960340000000     0.480730000000     0.682990000000    -0.108056   
C267     C      0.933040000000     0.494110000000     0.654280000000     0.0173789  
C268     C      0.887110000000     0.219170000000     0.066800000000     0.0211159  
C269     C      0.919330000000     0.222690000000     0.091950000000    -0.105228   
C270     C      0.915010000000     0.251360000000     0.122480000000     0.022734   
C271     C      0.705080000000     0.478740000000     0.588730000000     0.0196927  
C272     C      0.692690000000     0.440230000000     0.592700000000    -0.110785   
C273     C      0.657900000000     0.432610000000     0.573170000000     0.0181967  
C274     C      0.679760000000     0.228400000000     0.118350000000     0.0159527  
C275     C      0.694140000000     0.200770000000     0.090760000000    -0.107356   
C276     C      0.730330000000     0.210760000000     0.075760000000     0.0191282  
C277     C      0.961760000000     0.085600000000     0.438590000000     0.0199538  
C278     C      0.974910000000     0.597860000000     0.504760000000    -0.108181   
C279     C      0.938890000000     0.073730000000     0.504350000000     0.019366   
C280     C      0.728720000000     0.037400000000     0.450090000000     0.0180066  
C281     C      0.739210000000     0.531170000000     0.464500000000    -0.110249   
C282     C      0.789800000000     0.020080000000     0.471340000000     0.0222079  
C283     C      0.687230000000     0.157750000000     0.247880000000     0.0210586  
C284     C      0.691360000000     0.126360000000     0.220830000000    -0.105318   
C285     C      0.684460000000     0.138060000000     0.180350000000     0.0202952  
C286     C      0.924710000000     0.149500000000     0.217170000000     0.0171121  
C287     C      0.937710000000     0.118280000000     0.241100000000    -0.106803   
C288     C      0.941330000000     0.595720000000     0.286430000000     0.0157696  
C289     C      0.026090000000     0.193680000000     0.542650000000     0.0172063  
C290     C      0.566700000000     0.192360000000     0.511420000000    -0.103874   
C291     C      0.071690000000     0.155350000000     0.510250000000     0.0149978  
C292     C      0.088740000000     0.441770000000     0.444730000000     0.0195502  
C293     C      0.058630000000     0.421290000000     0.463030000000    -0.10827    
C294     C      0.063160000000     0.417110000000     0.505780000000     0.02041    
C295     C      0.068650000000     0.405170000000     0.246790000000     0.0214853  
C296     C      0.569150000000     0.458990000000     0.257340000000    -0.108232   
C297     C      0.048610000000     0.468240000000     0.255430000000     0.0192592  
C298     C      0.105490000000     0.273220000000     0.272050000000     0.0177786  
C299     C      0.604800000000     0.263220000000     0.322270000000    -0.104747   
C300     C      0.087440000000     0.235980000000     0.329070000000     0.0225826  
C301     C      0.664950000000     0.134370000000     0.809570000000     0.412597   
C302     C      0.078340000000     0.524250000000     0.940560000000     0.411874   
C303     C      0.650530000000     0.055020000000     0.937150000000     0.411394   
C304     C      0.051040000000     0.540370000000     0.791760000000     0.407662   
C305     C      0.988220000000     0.588750000000     0.827530000000     0.40853    
C306     C      0.611470000000     0.137380000000     0.959760000000     0.41213    
C307     C      0.611620000000     0.185570000000     0.859220000000     0.408699   
C308     C      0.005320000000     0.595370000000     0.933630000000     0.411571   
C309     C      0.584740000000     0.275510000000     0.711300000000     0.402792   
C310     C      0.994550000000     0.386300000000     0.129990000000     0.40209    
C311     C      0.592050000000     0.375000000000     0.702140000000     0.40191    
C312     C      0.976240000000     0.267490000000     0.135460000000     0.406287   
C313     C      0.023480000000     0.247470000000     0.055190000000     0.407242   
C314     C      0.627570000000     0.378210000000     0.596290000000     0.409922   
C315     C      0.622510000000     0.245400000000     0.624160000000     0.409546   
C316     C      0.037800000000     0.381610000000     0.042280000000     0.410638   
C317     C      0.873680000000     0.130520000000     0.695740000000     0.408197   
C318     C      0.779090000000     0.493630000000     0.069640000000     0.410329   
C319     C      0.734360000000     0.098830000000     0.646550000000     0.410616   
C320     C      0.901950000000     0.538390000000     0.130100000000     0.4094     
C321     C      0.900320000000     0.588580000000     0.053290000000     0.41026    
C322     C      0.770030000000     0.147340000000     0.580750000000     0.406537   
C323     C      0.853200000000     0.178820000000     0.615670000000     0.410795   
C324     C      0.808660000000     0.548210000000     0.001130000000     0.409532   
C325     C      0.977580000000     0.437320000000     0.169820000000     0.0162377  
C326     C      0.948000000000     0.464750000000     0.173170000000    -0.106406   
C327     C      0.943090000000     0.487040000000     0.137210000000     0.0182821  
C328     C      0.888200000000     0.225960000000     0.584380000000     0.0213912  
C329     C      0.920260000000     0.229000000000     0.609800000000    -0.105697   
C330     C      0.914930000000     0.255290000000     0.642500000000     0.0227506  
C331     C      0.725990000000     0.455500000000     0.068960000000     0.0172756  
C332     C      0.718280000000     0.421810000000     0.091600000000    -0.111146   
C333     C      0.679220000000     0.414300000000     0.096610000000     0.0188806  
C334     C      0.682280000000     0.226620000000     0.607970000000     0.016382   
C335     C      0.699870000000     0.195510000000     0.587740000000    -0.108269   
C336     C      0.737660000000     0.204240000000     0.577160000000     0.0195217  
C337     C      0.971400000000     0.064010000000     0.945380000000     0.0183835  
C338     C      0.979340000000     0.632530000000     0.010640000000    -0.107438   
C339     C      0.930750000000     0.057600000000     0.000890000000     0.0193067  
C340     C      0.709870000000     0.031160000000     0.947610000000     0.0181652  
C341     C      0.742840000000     0.542270000000     0.949490000000    -0.110992   
C342     C      0.769710000000     0.011570000000     0.969710000000     0.0224335  
C343     C      0.688040000000     0.154550000000     0.748050000000     0.0200485  
C344     C      0.693670000000     0.121910000000     0.723010000000    -0.104489   
C345     C      0.688730000000     0.131410000000     0.681560000000     0.0199715  
C346     C      0.927290000000     0.143820000000     0.733580000000     0.0168742  
C347     C      0.941810000000     0.111320000000     0.754570000000    -0.106774   
C348     C      0.938590000000     0.614230000000     0.791330000000     0.0163866  
C349     C      0.032980000000     0.188190000000     0.026400000000     0.0170831  
C350     C      0.567030000000     0.193420000000     0.019390000000    -0.104132   
C351     C      0.089700000000     0.155140000000     0.014330000000     0.0164619  
C352     C      0.089770000000     0.459140000000     0.944260000000     0.0197081  
C353     C      0.059150000000     0.436140000000     0.957440000000    -0.107806   
C354     C      0.060170000000     0.428750000000     0.999940000000     0.0202526  
C355     C      0.055110000000     0.415810000000     0.757030000000     0.0212389  
C356     C      0.576060000000     0.448120000000     0.753090000000    -0.109508   
C357     C      0.038020000000     0.479350000000     0.768570000000     0.01852    
C358     C      0.087310000000     0.283600000000     0.797100000000     0.0164378  
C359     C      0.625990000000     0.250240000000     0.801880000000    -0.109069   
C360     C      0.086900000000     0.234640000000     0.846740000000     0.0203557  
C361     C      0.633650000000     0.600470000000     0.292980000000     0.411872   
C362     C      0.079020000000     0.988330000000     0.401760000000     0.410898   
C363     C      0.654360000000     0.575450000000     0.438070000000     0.408167   
C364     C      0.087430000000     0.047750000000     0.262200000000     0.408416   
C365     C      0.017260000000     0.085120000000     0.292570000000     0.400943   
C366     C      0.628970000000     0.664120000000     0.443010000000     0.41358    
C367     C      0.607260000000     0.683450000000     0.331620000000     0.413101   
C368     C      0.007720000000     0.062170000000     0.396100000000     0.404197   
C369     C      0.562440000000     0.787780000000     0.207310000000     0.398134   
C370     C      0.985760000000     0.903330000000     0.601940000000     0.404322   
C371     C      0.591720000000     0.890370000000     0.170330000000     0.4022     
C372     C      0.961940000000     0.781650000000     0.635090000000     0.402627   
C373     C      0.997710000000     0.756260000000     0.543110000000     0.409165   
C374     C      0.641410000000     0.865990000000     0.092860000000     0.411098   
C375     C      0.617650000000     0.739680000000     0.144610000000     0.411169   
C376     C      0.022160000000     0.869820000000     0.513320000000     0.411017   
C377     C      0.841220000000     0.602830000000     0.202080000000     0.412491   
C378     C      0.779170000000     0.997640000000     0.621430000000     0.415436   
C379     C      0.714260000000     0.575200000000     0.122500000000     0.410237   
C380     C      0.916490000000     0.040740000000     0.650290000000     0.409634   
C381     C      0.903340000000     0.053030000000     0.558160000000     0.411854   
C382     C      0.752650000000     0.646980000000     0.083710000000     0.404642   
C383     C      0.820910000000     0.671390000000     0.138850000000     0.408696   
C384     C      0.813900000000     0.021200000000     0.536040000000     0.410266   
C385     C      0.975550000000     0.967460000000     0.615620000000     0.0179005  
C386     C      0.982690000000     0.975430000000     0.657400000000    -0.0981586  
C387     C      0.950740000000     0.990560000000     0.678020000000     0.0150699  
C388     C      0.840230000000     0.729670000000     0.113880000000     0.0228766  
C389     C      0.878690000000     0.730540000000     0.125430000000    -0.109132   
C390     C      0.901990000000     0.745920000000     0.094260000000     0.0206454  
C391     C      0.724850000000     0.962650000000     0.613730000000     0.0198515  
C392     C      0.714770000000     0.923560000000     0.618820000000    -0.111867   
C393     C      0.680650000000     0.913480000000     0.599160000000     0.0185516  
C394     C      0.678150000000     0.716280000000     0.144400000000     0.0151631  
C395     C      0.688770000000     0.698050000000     0.107680000000    -0.102075   
C396     C      0.726710000000     0.705800000000     0.097040000000     0.0189104  
C397     C      0.959320000000     0.601390000000     0.464980000000     0.0258144  
C398     C      0.952180000000     0.057360000000     0.467640000000    -0.109565   
C399     C      0.947910000000     0.605810000000     0.535490000000     0.0184104  
C400     C      0.714550000000     0.551650000000     0.438140000000     0.0188479  
C401     C      0.750380000000     0.016020000000     0.478670000000    -0.109526   
C402     C      0.777820000000     0.535950000000     0.453430000000     0.0227934  
C403     C      0.642230000000     0.596650000000     0.224290000000     0.0193423  
C404     C      0.666310000000     0.577480000000     0.196400000000    -0.111727   
C405     C      0.659770000000     0.590840000000     0.156350000000     0.0248626  
C406     C      0.887290000000     0.614460000000     0.250100000000     0.0166005  
C407     C      0.904390000000     0.585140000000     0.273740000000    -0.108344   
C408     C      0.976390000000     0.121420000000     0.252700000000     0.014893   
C409     C      0.998080000000     0.696980000000     0.511320000000     0.0186272  
C410     C      0.604620000000     0.729680000000     0.502010000000    -0.100947   
C411     C      0.061790000000     0.694570000000     0.490370000000     0.0231379  
C412     C      0.071570000000     0.922550000000     0.395740000000     0.0179508  
C413     C      0.040100000000     0.906430000000     0.416450000000    -0.107597   
C414     C      0.047970000000     0.899240000000     0.458180000000     0.0198093  
C415     C      0.054110000000     0.944020000000     0.202090000000     0.0175667  
C416     C      0.599570000000     0.979010000000     0.215850000000    -0.109534   
C417     C      0.066920000000     0.008860000000     0.210830000000     0.0222605  
C418     C      0.011550000000     0.772980000000     0.258500000000     0.0213503  
C419     C      0.605270000000     0.774440000000     0.287770000000    -0.106476   
C420     C      0.038640000000     0.722360000000     0.296090000000     0.0200721  
C421     C      0.624650000000     0.601550000000     0.792180000000     0.411104   
C422     C      0.093360000000     0.987350000000     0.909450000000     0.411219   
C423     C      0.650830000000     0.572680000000     0.930220000000     0.404634   
C424     C      0.095660000000     0.050800000000     0.765830000000     0.409684   
C425     C      0.024520000000     0.080510000000     0.802430000000     0.401581   
C426     C      0.621090000000     0.656620000000     0.945980000000     0.412673   
C427     C      0.585840000000     0.679980000000     0.831700000000     0.413678   
C428     C      0.020280000000     0.046960000000     0.903090000000     0.409101   
C429     C      0.540820000000     0.778980000000     0.703670000000     0.401418   
C430     C      0.989820000000     0.890300000000     0.104190000000     0.403798   
C431     C      0.576810000000     0.891970000000     0.678820000000     0.401611   
C432     C      0.966810000000     0.750740000000     0.096700000000     0.41529    
C433     C      0.034160000000     0.759540000000     0.026810000000     0.410381   
C434     C      0.638230000000     0.865430000000     0.613650000000     0.40997    
C435     C      0.613190000000     0.743220000000     0.647480000000     0.40985    
C436     C      0.033650000000     0.865490000000     0.019340000000     0.410987   
C437     C      0.838770000000     0.615190000000     0.705610000000     0.413357   
C438     C      0.759750000000     0.006580000000     0.118890000000     0.413456   
C439     C      0.709620000000     0.590810000000     0.622180000000     0.413618   
C440     C      0.902980000000     0.033330000000     0.140470000000     0.410704   
C441     C      0.887950000000     0.043830000000     0.050630000000     0.411806   
C442     C      0.752580000000     0.660310000000     0.587440000000     0.408989   
C443     C      0.818640000000     0.681980000000     0.645950000000     0.413008   
C444     C      0.795980000000     0.017360000000     0.033110000000     0.412189   
C445     C      0.975970000000     0.953560000000     0.120140000000     0.015709   
C446     C      0.968630000000     0.963380000000     0.161480000000    -0.101789   
C447     C      0.932340000000     0.979960000000     0.167510000000     0.0152526  
C448     C      0.841740000000     0.742050000000     0.629930000000     0.0233345  
C449     C      0.874600000000     0.745760000000     0.653720000000    -0.110752   
C450     C      0.897960000000     0.776220000000     0.640060000000     0.0193444  
C451     C      0.706310000000     0.971780000000     0.106240000000     0.0183487  
C452     C      0.698060000000     0.931890000000     0.109520000000    -0.108712   
C453     C      0.678940000000     0.916960000000     0.075150000000     0.0176672  
C454     C      0.675510000000     0.725780000000     0.647670000000     0.0144216  
C455     C      0.688090000000     0.709610000000     0.610530000000    -0.102584   
C456     C      0.726200000000     0.718700000000     0.601880000000     0.019265   
C457     C      0.967840000000     0.636960000000     0.969410000000     0.025662   
C458     C      0.947410000000     0.038940000000     0.967150000000    -0.11124    
C459     C      0.948460000000     0.629390000000     0.037830000000     0.0205523  
C460     C      0.713920000000     0.559720000000     0.925860000000     0.0189976  
C461     C      0.730360000000     0.011670000000     0.978490000000    -0.109899   
C462     C      0.779100000000     0.557360000000     0.939790000000     0.0234498  
C463     C      0.634720000000     0.603020000000     0.723790000000     0.018359   
C464     C      0.660590000000     0.587890000000     0.695010000000    -0.11047    
C465     C      0.655400000000     0.605900000000     0.656810000000     0.0243776  
C466     C      0.884490000000     0.629430000000     0.753170000000     0.016435   
C467     C      0.901730000000     0.602430000000     0.779560000000    -0.108759   
C468     C      0.980160000000     0.116040000000     0.766820000000     0.0142373  
C469     C      0.066890000000     0.719230000000     0.984390000000     0.0217601  
C470     C      0.600320000000     0.716230000000     0.013630000000    -0.101584   
C471     C      0.132150000000     0.705300000000     0.988810000000     0.0189033  
C472     C      0.089560000000     0.921040000000     0.905970000000     0.0186554  
C473     C      0.057420000000     0.904460000000     0.924960000000    -0.107893   
C474     C      0.062990000000     0.897220000000     0.967200000000     0.0198274  
C475     C      0.071410000000     0.948220000000     0.696300000000     0.0161473  
C476     C      0.588710000000     0.980730000000     0.719320000000    -0.108543   
C477     C      0.075880000000     0.012570000000     0.713640000000     0.022023   
C478     C      0.068940000000     0.796790000000     0.761330000000     0.0188123  
C479     C      0.569220000000     0.770790000000     0.790840000000    -0.106846   
C480     C      0.082120000000     0.737200000000     0.792130000000     0.0204737  
Co1      Co     0.089520000000     0.108110000000     0.317570000000     0.845311   
Co2      Co     0.580930000000     0.602870000000     0.435950000000     0.902642   
Co3      Co     0.135460000000     0.109080000000     0.381500000000     0.871759   
Co4      Co     0.547590000000     0.560510000000     0.378530000000     0.882023   
Co5      Co     0.052580000000     0.266370000000     0.130290000000     0.840551   
Co6      Co     0.556400000000     0.372660000000     0.628120000000     0.843363   
Co7      Co     0.109350000000     0.309960000000     0.142840000000     0.842882   
Co8      Co     0.509400000000     0.322330000000     0.596890000000     0.858884   
Co9      Co     0.377200000000     0.092100000000     0.117260000000     0.858249   
Co10     Co     0.276770000000     0.567780000000     0.568720000000     0.859424   
Co11     Co     0.310390000000     0.112790000000     0.145710000000     0.863322   
Co12     Co     0.344110000000     0.538290000000     0.573130000000     0.858083   
Co13     Co     0.095710000000     0.108270000000     0.824310000000     0.867121   
Co14     Co     0.575780000000     0.593710000000     0.935980000000     0.881171   
Co15     Co     0.147140000000     0.107170000000     0.883730000000     0.88556    
Co16     Co     0.538660000000     0.554220000000     0.880140000000     0.857409   
Co17     Co     0.052130000000     0.268400000000     0.649380000000     0.841032   
Co18     Co     0.565520000000     0.370050000000     0.136040000000     0.831889   
Co19     Co     0.106340000000     0.314050000000     0.667280000000     0.835448   
Co20     Co     0.512930000000     0.321520000000     0.114120000000     0.837757   
Co21     Co     0.370150000000     0.098130000000     0.611590000000     0.874377   
Co22     Co     0.278470000000     0.581380000000     0.077880000000     0.863077   
Co23     Co     0.304280000000     0.123940000000     0.640640000000     0.884465   
Co24     Co     0.344100000000     0.546880000000     0.085310000000     0.881381   
Co25     Co     0.063000000000     0.599530000000     0.320260000000     0.849613   
Co26     Co     0.592470000000     0.069380000000     0.418660000000     0.868691   
Co27     Co     0.116410000000     0.623100000000     0.369860000000     0.869506   
Co28     Co     0.574960000000     0.040210000000     0.346570000000     0.878036   
Co29     Co     0.041980000000     0.757860000000     0.109630000000     0.874854   
Co30     Co     0.561570000000     0.869150000000     0.599890000000     0.850058   
Co31     Co     0.078440000000     0.809510000000     0.150760000000     0.843434   
Co32     Co     0.507950000000     0.819530000000     0.583180000000     0.836595   
Co33     Co     0.357020000000     0.611580000000     0.126540000000     0.866979   
Co34     Co     0.281270000000     0.074150000000     0.585010000000     0.876973   
Co35     Co     0.285720000000     0.611990000000     0.150560000000     0.867518   
Co36     Co     0.337820000000     0.028720000000     0.606230000000     0.891111   
Co37     Co     0.062040000000     0.614330000000     0.819630000000     0.886061   
Co38     Co     0.577940000000     0.078680000000     0.916610000000     0.880145   
Co39     Co     0.124120000000     0.617640000000     0.865340000000     0.882272   
Co40     Co     0.563490000000     0.049020000000     0.843570000000     0.888844   
Co41     Co     0.035480000000     0.772750000000     0.614250000000     0.840594   
Co42     Co     0.564110000000     0.866670000000     0.095730000000     0.842862   
Co43     Co     0.089380000000     0.819470000000     0.629590000000     0.828772   
Co44     Co     0.510880000000     0.816430000000     0.084620000000     0.837267   
Co45     Co     0.353850000000     0.601000000000     0.617600000000     0.860794   
Co46     Co     0.289840000000     0.058980000000     0.094420000000     0.860201   
Co47     Co     0.282450000000     0.601500000000     0.638910000000     0.847744   
Co48     Co     0.352310000000     0.020740000000     0.107200000000     0.875688   
Co49     Co     0.595000000000     0.111190000000     0.324940000000     0.86499    
Co50     Co     0.077470000000     0.584900000000     0.423200000000     0.849523   
Co51     Co     0.645740000000     0.110490000000     0.385110000000     0.885934   
Co52     Co     0.049220000000     0.539830000000     0.367300000000     0.864995   
Co53     Co     0.548750000000     0.268730000000     0.154320000000     0.838529   
Co54     Co     0.072120000000     0.369720000000     0.631230000000     0.834413   
Co55     Co     0.602180000000     0.315380000000     0.171200000000     0.836102   
Co56     Co     0.017030000000     0.323750000000     0.612100000000     0.834272   
Co57     Co     0.867390000000     0.098340000000     0.108310000000     0.883867   
Co58     Co     0.772690000000     0.585680000000     0.573900000000     0.90665    
Co59     Co     0.802500000000     0.125560000000     0.139740000000     0.893353   
Co60     Co     0.831980000000     0.542810000000     0.595310000000     0.916774   
Co61     Co     0.588780000000     0.118100000000     0.820770000000     0.866281   
Co62     Co     0.081990000000     0.602290000000     0.929320000000     0.891719   
Co63     Co     0.636400000000     0.113970000000     0.884130000000     0.900389   
Co64     Co     0.046850000000     0.559650000000     0.873540000000     0.874836   
Co65     Co     0.549890000000     0.271950000000     0.637040000000     0.84603    
Co66     Co     0.068590000000     0.366650000000     0.117710000000     0.839529   
Co67     Co     0.605010000000     0.319290000000     0.644850000000     0.852374   
Co68     Co     0.017060000000     0.319640000000     0.089700000000     0.846309   
Co69     Co     0.875740000000     0.101880000000     0.617650000000     0.872721   
Co70     Co     0.776140000000     0.573010000000     0.071980000000     0.864651   
Co71     Co     0.809020000000     0.122570000000     0.648500000000     0.881477   
Co72     Co     0.842440000000     0.539490000000     0.076150000000     0.868018   
Co73     Co     0.564320000000     0.617360000000     0.327020000000     0.892265   
Co74     Co     0.083370000000     0.066710000000     0.413060000000     0.84856    
Co75     Co     0.626240000000     0.617460000000     0.373900000000     0.889906   
Co76     Co     0.062620000000     0.040980000000     0.341350000000     0.870232   
Co77     Co     0.547850000000     0.767930000000     0.128540000000     0.841855   
Co78     Co     0.056420000000     0.873250000000     0.588850000000     0.844697   
Co79     Co     0.600020000000     0.817100000000     0.140460000000     0.830373   
Co80     Co     0.998830000000     0.827730000000     0.579040000000     0.835599   
Co81     Co     0.855280000000     0.602180000000     0.119920000000     0.864112   
Co82     Co     0.788190000000     0.071810000000     0.592910000000     0.879294   
Co83     Co     0.784630000000     0.603390000000     0.144450000000     0.859482   
Co84     Co     0.848450000000     0.030500000000     0.611160000000     0.891362   
Co85     Co     0.554010000000     0.608060000000     0.826100000000     0.880561   
Co86     Co     0.094270000000     0.066020000000     0.917820000000     0.866352   
Co87     Co     0.614100000000     0.616770000000     0.872960000000     0.860392   
Co88     Co     0.075710000000     0.037100000000     0.846020000000     0.877706   
Co89     Co     0.544300000000     0.765770000000     0.621420000000     0.858645   
Co90     Co     0.062450000000     0.862970000000     0.097660000000     0.855543   
Co91     Co     0.586980000000     0.818160000000     0.650630000000     0.833087   
Co92     Co     0.006910000000     0.816610000000     0.077690000000     0.843388   
Co93     Co     0.853610000000     0.612750000000     0.623610000000     0.900711   
Co94     Co     0.776710000000     0.076530000000     0.084030000000     0.883346   
Co95     Co     0.780900000000     0.614230000000     0.648820000000     0.900552   
Co96     Co     0.832060000000     0.029900000000     0.106600000000     0.898483   
H1       H      0.451620000000     0.419370000000     0.709440000000     0.0285468  
H2       H      0.484590000000     0.442220000000     0.683520000000     0.0430115  
H3       H      0.446640000000     0.548080000000     0.173870000000     0.103323   
H4       H      0.421970000000     0.462180000000     0.191740000000     0.0560006  
H5       H      0.453870000000     0.493100000000     0.208390000000     0.0519021  
H6       H      0.428930000000     0.474050000000     0.616370000000     0.0481992  
H7       H      0.469370000000     0.487010000000     0.638160000000     0.0352126  
H8       H      0.441100000000     0.409180000000     0.156120000000     0.104403   
H9       H      0.394720000000     0.198680000000     0.547980000000     0.0370212  
H10      H      0.384540000000     0.241190000000     0.066640000000     0.0276354  
H11      H      0.447060000000     0.229780000000     0.675310000000     0.103548   
H12      H      0.427160000000     0.193770000000     0.120620000000     0.0712454  
H13      H      0.443210000000     0.229540000000     0.580780000000     0.066111   
H14      H      0.389560000000     0.238750000000     0.154970000000     0.032982   
H15      H      0.406720000000     0.273480000000     0.619280000000     0.0422209  
H16      H      0.340780000000     0.221960000000     0.108270000000     0.103294   
H17      H      0.212740000000     0.481690000000     0.091800000000     0.0383281  
H18      H      0.224780000000     0.439780000000     0.531700000000     0.0296548  
H19      H      0.194250000000     0.361830000000     0.078290000000     0.102575   
H20      H      0.239290000000     0.393230000000     0.577370000000     0.0542157  
H21      H      0.227060000000     0.417490000000     0.106430000000     0.0593169  
H22      H      0.174930000000     0.403560000000     0.564190000000     0.034118   
H23      H      0.164330000000     0.434280000000     0.094610000000     0.0385738  
H24      H      0.287650000000     0.434240000000     0.558340000000     0.103041   
H25      H      0.185960000000     0.238840000000     0.084580000000     0.0395681  
H26      H      0.195590000000     0.219990000000     0.129720000000     0.0380799  
H27      H      0.243440000000     0.172590000000     0.525980000000     0.104708   
H28      H      0.199010000000     0.172550000000     0.603160000000     0.0653105  
H29      H      0.179920000000     0.194480000000     0.563220000000     0.0567374  
H30      H      0.251870000000     0.199740000000     0.096050000000     0.0441813  
H31      H      0.236670000000     0.210490000000     0.049230000000     0.0269366  
H32      H      0.137330000000     0.192230000000     0.618770000000     0.101734   
H33      H      0.488810000000     0.088330000000     0.458010000000     0.041525   
H34      H      0.448200000000     0.091040000000     0.432460000000     0.026157   
H35      H      0.438730000000     0.580190000000     0.511760000000     0.109586   
H36      H      0.496940000000     0.615430000000     0.514200000000     0.0693844  
H37      H      0.491450000000     0.662420000000     0.518500000000     0.056574   
H38      H      0.418400000000     0.084600000000     0.494840000000     0.0350859  
H39      H      0.457040000000     0.074550000000     0.521200000000     0.0368403  
H40      H      0.450560000000     0.591800000000     0.441440000000     0.104471   
H41      H      0.224380000000     0.025930000000     0.416250000000     0.0339254  
H42      H      0.227120000000     0.064310000000     0.445950000000     0.043594   
H43      H      0.329340000000     0.531690000000     0.446140000000     0.103937   
H44      H      0.243430000000     0.548150000000     0.473240000000     0.0756571  
H45      H      0.245750000000     0.526290000000     0.428700000000     0.0571375  
H46      H      0.287120000000     0.046610000000     0.462080000000     0.0378614  
H47      H      0.286760000000     0.003640000000     0.439350000000     0.0237521  
H48      H      0.183460000000     0.553400000000     0.466440000000     0.107375   
H49      H      0.161190000000     0.158110000000     0.238880000000     0.0430635  
H50      H      0.207110000000     0.169020000000     0.237500000000     0.0299851  
H51      H      0.168540000000     0.559540000000     0.114710000000     0.103871   
H52      H      0.193540000000     0.596390000000     0.206090000000     0.0744589  
H53      H      0.156030000000     0.567620000000     0.206710000000     0.0628491  
H54      H      0.204750000000     0.145210000000     0.172400000000     0.038511   
H55      H      0.162190000000     0.124810000000     0.175280000000     0.0278625  
H56      H      0.182020000000     0.628410000000     0.266030000000     0.106532   
H57      H      0.404500000000     0.637410000000     0.231240000000     0.0453449  
H58      H      0.431330000000     0.167380000000     0.247200000000     0.0268379  
H59      H      0.440570000000     0.570240000000     0.330620000000     0.103132   
H60      H      0.426080000000     0.105850000000     0.276970000000     0.0562835  
H61      H      0.407010000000     0.579110000000     0.266580000000     0.0601497  
H62      H      0.482070000000     0.139740000000     0.283820000000     0.0378253  
H63      H      0.458720000000     0.620140000000     0.269570000000     0.0408739  
H64      H      0.373080000000     0.145330000000     0.247500000000     0.101115   
H65      H      0.537920000000     0.182200000000     0.563210000000     0.0448664  
H66      H      0.514550000000     0.172370000000     0.520400000000     0.0280263  
H67      H      0.119930000000     0.174780000000     0.486260000000     0.10294    
H68      H      0.560280000000     0.196430000000     0.481220000000     0.0589167  
H69      H      0.078850000000     0.209950000000     0.528800000000     0.0613764  
H70      H      0.569940000000     0.134450000000     0.513330000000     0.043958   
H71      H      0.598970000000     0.157580000000     0.544800000000     0.0303613  
H72      H      0.501770000000     0.234220000000     0.510650000000     0.101279   
H73      H      0.583150000000     0.459870000000     0.423880000000     0.0377874  
H74      H      0.113730000000     0.428680000000     0.452440000000     0.0254419  
H75      H      0.503450000000     0.399210000000     0.500770000000     0.10511    
H76      H      0.525520000000     0.451980000000     0.456490000000     0.0626238  
H77      H      0.551280000000     0.412050000000     0.454490000000     0.0532601  
H78      H      0.060370000000     0.443370000000     0.519810000000     0.0383186  
H79      H      0.573160000000     0.429410000000     0.522460000000     0.0414381  
H80      H      0.587340000000     0.500100000000     0.498110000000     0.103863   
H81      H      0.533430000000     0.416120000000     0.243240000000     0.0366255  
H82      H      0.549720000000     0.415330000000     0.290780000000     0.0239081  
H83      H      0.063100000000     0.517220000000     0.227970000000     0.103484   
H84      H      0.102360000000     0.450120000000     0.258530000000     0.061446   
H85      H      0.083910000000     0.450000000000     0.211770000000     0.0669736  
H86      H      0.532270000000     0.477870000000     0.299390000000     0.0407762  
H87      H      0.517290000000     0.480460000000     0.251500000000     0.0242057  
H88      H      0.115020000000     0.372770000000     0.250290000000     0.101823   
H89      H      0.129690000000     0.282760000000     0.258090000000     0.0447552  
H90      H      0.562310000000     0.301320000000     0.322480000000     0.0246792  
H91      H      0.115430000000     0.226510000000     0.380450000000     0.102857   
H92      H      0.124120000000     0.220010000000     0.285370000000     0.0700028  
H93      H      0.139440000000     0.254590000000     0.316020000000     0.0546637  
H94      H      0.566310000000     0.221150000000     0.330340000000     0.0438993  
H95      H      0.077550000000     0.260990000000     0.341910000000     0.0241848  
H96      H      0.060110000000     0.243360000000     0.253820000000     0.106807   
H97      H      0.480640000000     0.436730000000     0.212880000000     0.0280413  
H98      H      0.501420000000     0.458500000000     0.174490000000     0.0421011  
H99      H      0.442570000000     0.538200000000     0.667210000000     0.104024   
H100     H      0.404750000000     0.452970000000     0.674210000000     0.0571661  
H101     H      0.433290000000     0.479740000000     0.702300000000     0.052784   
H102     H      0.427270000000     0.481580000000     0.128050000000     0.0474003  
H103     H      0.470520000000     0.498670000000     0.135010000000     0.0351634  
H104     H      0.428320000000     0.397660000000     0.644160000000     0.104755   
H105     H      0.397830000000     0.195740000000     0.058350000000     0.0380394  
H106     H      0.385240000000     0.245090000000     0.556510000000     0.0282017  
H107     H      0.442950000000     0.229970000000     0.186810000000     0.104289   
H108     H      0.425770000000     0.193830000000     0.608440000000     0.0708534  
H109     H      0.443890000000     0.228760000000     0.091420000000     0.0651224  
H110     H      0.391550000000     0.236990000000     0.647490000000     0.0331962  
H111     H      0.408200000000     0.273760000000     0.126300000000     0.0427732  
H112     H      0.340230000000     0.229450000000     0.598040000000     0.103143   
H113     H      0.217280000000     0.471770000000     0.568670000000     0.0446451  
H114     H      0.219980000000     0.472910000000     0.042770000000     0.033786   
H115     H      0.203840000000     0.364460000000     0.625760000000     0.103452   
H116     H      0.232500000000     0.409100000000     0.056900000000     0.0546459  
H117     H      0.236570000000     0.424450000000     0.615760000000     0.0592094  
H118     H      0.169850000000     0.422620000000     0.045510000000     0.0306903  
H119     H      0.172880000000     0.432900000000     0.603940000000     0.0375466  
H120     H      0.280920000000     0.447210000000     0.080230000000     0.103237   
H121     H      0.183950000000     0.253110000000     0.600020000000     0.0396281  
H122     H      0.198760000000     0.228050000000     0.639960000000     0.0373641  
H123     H      0.245550000000     0.150250000000     0.028740000000     0.105487   
H124     H      0.198110000000     0.159500000000     0.102990000000     0.0631373  
H125     H      0.183490000000     0.175400000000     0.057860000000     0.0565718  
H126     H      0.250930000000     0.217040000000     0.596370000000     0.0432177  
H127     H      0.231450000000     0.229860000000     0.552030000000     0.025767   
H128     H      0.134380000000     0.183690000000     0.104970000000     0.10155    
H129     H      0.472100000000     0.110400000000     0.944770000000     0.0389291  
H130     H      0.428930000000     0.101960000000     0.926100000000     0.0244809  
H131     H      0.437410000000     0.582780000000     0.018330000000     0.110036   
H132     H      0.496500000000     0.615520000000     0.015930000000     0.0694398  
H133     H      0.493180000000     0.662820000000     0.018600000000     0.0558514  
H134     H      0.412520000000     0.091730000000     0.994040000000     0.035059   
H135     H      0.455540000000     0.089160000000     0.013700000000     0.0377203  
H136     H      0.445050000000     0.592760000000     0.945030000000     0.104532   
H137     H      0.235660000000     0.025610000000     0.918330000000     0.0337258  
H138     H      0.238940000000     0.062980000000     0.949330000000     0.0423749  
H139     H      0.327800000000     0.527270000000     0.960710000000     0.104439   
H140     H      0.241370000000     0.556070000000     0.985750000000     0.0768727  
H141     H      0.246220000000     0.519610000000     0.953650000000     0.0582153  
H142     H      0.298100000000     0.046540000000     0.967560000000     0.0371079  
H143     H      0.299220000000     0.006010000000     0.940360000000     0.0232133  
H144     H      0.182110000000     0.556540000000     0.975090000000     0.106561   
H145     H      0.160030000000     0.164900000000     0.743070000000     0.044129   
H146     H      0.205730000000     0.175720000000     0.737860000000     0.0303674  
H147     H      0.166550000000     0.545860000000     0.603950000000     0.104263   
H148     H      0.192030000000     0.576930000000     0.698560000000     0.0720264  
H149     H      0.161830000000     0.540550000000     0.692770000000     0.0597413  
H150     H      0.199910000000     0.158610000000     0.671950000000     0.0374915  
H151     H      0.156910000000     0.139210000000     0.674750000000     0.0276264  
H152     H      0.175860000000     0.574960000000     0.762400000000     0.104615   
H153     H      0.399440000000     0.620590000000     0.724300000000     0.0463033  
H154     H      0.429420000000     0.178790000000     0.735910000000     0.0259518  
H155     H      0.432400000000     0.555660000000     0.826620000000     0.103207   
H156     H      0.422890000000     0.118040000000     0.767230000000     0.0567527  
H157     H      0.398510000000     0.563330000000     0.762160000000     0.0592854  
H158     H      0.480140000000     0.149900000000     0.772050000000     0.0378531  
H159     H      0.451290000000     0.602980000000     0.763950000000     0.041034   
H160     H      0.370530000000     0.159450000000     0.738220000000     0.101231   
H161     H      0.544570000000     0.183370000000     0.074720000000     0.045946   
H162     H      0.516520000000     0.173190000000     0.035460000000     0.0298966  
H163     H      0.139520000000     0.170600000000     0.991160000000     0.102237   
H164     H      0.557210000000     0.197610000000     0.990290000000     0.0595103  
H165     H      0.083730000000     0.212260000000     0.015370000000     0.0621627  
H166     H      0.570340000000     0.135510000000     0.019410000000     0.0437351  
H167     H      0.601930000000     0.157910000000     0.048560000000     0.0287892  
H168     H      0.505230000000     0.236200000000     0.024920000000     0.101564   
H169     H      0.568890000000     0.450460000000     0.920490000000     0.0397595  
H170     H      0.114540000000     0.446410000000     0.953390000000     0.0247492  
H171     H      0.505340000000     0.389290000000     0.011370000000     0.105412   
H172     H      0.519560000000     0.443340000000     0.967320000000     0.0629768  
H173     H      0.542390000000     0.402980000000     0.955890000000     0.0528963  
H174     H      0.053350000000     0.453320000000     0.015690000000     0.0388668  
H175     H      0.578910000000     0.412040000000     0.016530000000     0.0370659  
H176     H      0.586300000000     0.489030000000     0.993780000000     0.104907   
H177     H      0.543920000000     0.400730000000     0.748600000000     0.0368762  
H178     H      0.573070000000     0.401360000000     0.788500000000     0.0231312  
H179     H      0.049480000000     0.525950000000     0.735540000000     0.101359   
H180     H      0.090750000000     0.458700000000     0.771210000000     0.0618141  
H181     H      0.072830000000     0.460970000000     0.724270000000     0.065387   
H182     H      0.558620000000     0.462350000000     0.809370000000     0.0405235  
H183     H      0.524710000000     0.461520000000     0.774460000000     0.0311037  
H184     H      0.099430000000     0.382820000000     0.769950000000     0.101326   
H185     H      0.105230000000     0.304360000000     0.786050000000     0.0451719  
H186     H      0.606540000000     0.302900000000     0.786760000000     0.0287916  
H187     H      0.126080000000     0.224460000000     0.888740000000     0.10267    
H188     H      0.122530000000     0.238160000000     0.799140000000     0.0687     
H189     H      0.129280000000     0.270950000000     0.835150000000     0.0531601  
H190     H      0.574080000000     0.234270000000     0.821120000000     0.0385859  
H191     H      0.072830000000     0.252970000000     0.866020000000     0.0250104  
H192     H      0.047770000000     0.248770000000     0.774240000000     0.105627   
H193     H      0.497870000000     0.962800000000     0.609320000000     0.0452963  
H194     H      0.452440000000     0.972740000000     0.605100000000     0.0405124  
H195     H      0.467820000000     0.036380000000     0.172650000000     0.1011     
H196     H      0.494230000000     0.941290000000     0.170220000000     0.0579011  
H197     H      0.506160000000     0.984580000000     0.154450000000     0.0523994  
H198     H      0.435140000000     0.981400000000     0.706600000000     0.0278062  
H199     H      0.413810000000     0.966130000000     0.664710000000     0.043737   
H200     H      0.440230000000     0.909310000000     0.113550000000     0.107935   
H201     H      0.345840000000     0.717840000000     0.583440000000     0.0360573  
H202     H      0.336210000000     0.767550000000     0.129510000000     0.0232773  
H203     H      0.441410000000     0.716770000000     0.640310000000     0.108152   
H204     H      0.374570000000     0.746390000000     0.183150000000     0.0584462  
H205     H      0.384850000000     0.702260000000     0.637940000000     0.0730566  
H206     H      0.400040000000     0.792930000000     0.144850000000     0.0355266  
H207     H      0.403040000000     0.744850000000     0.581820000000     0.0347864  
H208     H      0.300450000000     0.728930000000     0.163240000000     0.101821   
H209     H      0.214910000000     0.968280000000     0.127370000000     0.0383689  
H210     H      0.214630000000     0.977840000000     0.570480000000     0.0376194  
H211     H      0.186190000000     0.854000000000     0.145460000000     0.102441   
H212     H      0.226440000000     0.912810000000     0.592700000000     0.0569455  
H213     H      0.219730000000     0.908540000000     0.156930000000     0.0566064  
H214     H      0.184010000000     0.923200000000     0.542720000000     0.0289653  
H215     H      0.163660000000     0.924570000000     0.122220000000     0.0377001  
H216     H      0.252750000000     0.954070000000     0.639500000000     0.101922   
H217     H      0.175760000000     0.749730000000     0.146120000000     0.0435622  
H218     H      0.184760000000     0.707920000000     0.169600000000     0.0354242  
H219     H      0.236970000000     0.674110000000     0.530450000000     0.104145   
H220     H      0.181380000000     0.665640000000     0.603090000000     0.0655955  
H221     H      0.170680000000     0.690930000000     0.561570000000     0.0605643  
H222     H      0.238620000000     0.712630000000     0.130730000000     0.0428456  
H223     H      0.227410000000     0.739770000000     0.090660000000     0.0245741  
H224     H      0.119240000000     0.689710000000     0.610670000000     0.103861   
H225     H      0.480710000000     0.662620000000     0.455340000000     0.0329065  
H226     H      0.438080000000     0.647940000000     0.467150000000     0.0271653  
H227     H      0.418480000000     0.009460000000     0.518150000000     0.104702   
H228     H      0.431700000000     0.030620000000     0.452960000000     0.056049   
H229     H      0.472510000000     0.025750000000     0.477700000000     0.0623479  
H230     H      0.428780000000     0.654890000000     0.534790000000     0.0374687  
H231     H      0.457710000000     0.632540000000     0.566830000000     0.0401816  
H232     H      0.466430000000     0.040880000000     0.392020000000     0.1026     
H233     H      0.220280000000     0.577280000000     0.396360000000     0.0400474  
H234     H      0.226390000000     0.605870000000     0.436070000000     0.0392576  
H235     H      0.313290000000     0.978580000000     0.492780000000     0.102891   
H236     H      0.234870000000     0.024240000000     0.502330000000     0.0748968  
H237     H      0.233630000000     0.985860000000     0.472170000000     0.0554136  
H238     H      0.286630000000     0.595990000000     0.443660000000     0.0376196  
H239     H      0.292430000000     0.564450000000     0.406430000000     0.0237404  
H240     H      0.173230000000     0.014540000000     0.473200000000     0.104612   
H241     H      0.116800000000     0.618450000000     0.217030000000     0.0461452  
H242     H      0.151670000000     0.649570000000     0.208880000000     0.0315602  
H243     H      0.184240000000     0.072770000000     0.148280000000     0.102652   
H244     H      0.222780000000     0.105950000000     0.228690000000     0.0671521  
H245     H      0.177730000000     0.092660000000     0.232300000000     0.0662535  
H246     H      0.167750000000     0.627870000000     0.149100000000     0.030781   
H247     H      0.132580000000     0.596120000000     0.149130000000     0.0256933  
H248     H      0.216290000000     0.143100000000     0.297580000000     0.104521   
H249     H      0.440550000000     0.145990000000     0.202760000000     0.0431815  
H250     H      0.384420000000     0.657510000000     0.271800000000     0.0282053  
H251     H      0.479040000000     0.061260000000     0.280220000000     0.10227    
H252     H      0.388130000000     0.600840000000     0.306970000000     0.0537198  
H253     H      0.440720000000     0.087240000000     0.233060000000     0.0623239  
H254     H      0.439850000000     0.642900000000     0.308950000000     0.0333782  
H255     H      0.496880000000     0.123110000000     0.239310000000     0.0393762  
H256     H      0.334320000000     0.615430000000     0.266040000000     0.101307   
H257     H      0.564680000000     0.693610000000     0.523300000000     0.0439124  
H258     H      0.563520000000     0.700750000000     0.472980000000     0.0381325  
H259     H      0.097430000000     0.715310000000     0.448660000000     0.104136   
H260     H      0.608090000000     0.748910000000     0.478530000000     0.056726   
H261     H      0.018090000000     0.712440000000     0.456010000000     0.0586256  
H262     H      0.625610000000     0.677230000000     0.517040000000     0.0418846  
H263     H      0.656920000000     0.712620000000     0.514630000000     0.0239013  
H264     H      0.528790000000     0.751310000000     0.481410000000     0.102253   
H265     H      0.577590000000     0.928470000000     0.377530000000     0.0387696  
H266     H      0.093050000000     0.902690000000     0.395840000000     0.0269505  
H267     H      0.509980000000     0.869390000000     0.468620000000     0.104192   
H268     H      0.528910000000     0.924350000000     0.423780000000     0.0604038  
H269     H      0.546640000000     0.881310000000     0.412630000000     0.0508772  
H270     H      0.051130000000     0.924820000000     0.473500000000     0.0427067  
H271     H      0.583800000000     0.886040000000     0.473250000000     0.0353241  
H272     H      0.601770000000     0.956440000000     0.454150000000     0.105019   
H273     H      0.572660000000     0.957990000000     0.166910000000     0.0419676  
H274     H      0.552900000000     0.946680000000     0.211080000000     0.0284779  
H275     H      0.104430000000     0.051270000000     0.207130000000     0.101681   
H276     H      0.084390000000     0.966370000000     0.247990000000     0.0690405  
H277     H      0.105900000000     0.967590000000     0.202790000000     0.062626   
H278     H      0.554430000000     0.011150000000     0.229890000000     0.036782   
H279     H      0.573470000000     0.020630000000     0.184610000000     0.0236725  
H280     H      0.070980000000     0.898870000000     0.234860000000     0.103041   
H281     H      0.013560000000     0.802060000000     0.253130000000     0.0374991  
H282     H      0.561820000000     0.809960000000     0.297780000000     0.0238458  
H283     H      0.083670000000     0.732110000000     0.331950000000     0.104428   
H284     H      0.067100000000     0.763610000000     0.265950000000     0.0702365  
H285     H      0.044520000000     0.778790000000     0.307250000000     0.0515089  
H286     H      0.574510000000     0.725870000000     0.281500000000     0.046001   
H287     H      0.014080000000     0.719590000000     0.312440000000     0.031663   
H288     H      0.994540000000     0.730520000000     0.221860000000     0.10463    
H289     H      0.497810000000     0.960820000000     0.095640000000     0.0444686  
H290     H      0.452760000000     0.970630000000     0.103710000000     0.0446669  
H291     H      0.455120000000     0.036180000000     0.669840000000     0.100503   
H292     H      0.475900000000     0.941340000000     0.679940000000     0.0551988  
H293     H      0.492380000000     0.984460000000     0.669320000000     0.0497085  
H294     H      0.460070000000     0.980190000000     0.206760000000     0.0264143  
H295     H      0.429650000000     0.964470000000     0.172110000000     0.0434369  
H296     H      0.437130000000     0.910920000000     0.615920000000     0.106208   
H297     H      0.351900000000     0.730620000000     0.101400000000     0.0361202  
H298     H      0.330830000000     0.756360000000     0.609480000000     0.0239652  
H299     H      0.443830000000     0.739130000000     0.175490000000     0.106201   
H300     H      0.371700000000     0.742220000000     0.661700000000     0.059165   
H301     H      0.391020000000     0.711810000000     0.152870000000     0.0736647  
H302     H      0.399430000000     0.780060000000     0.616270000000     0.0393677  
H303     H      0.408230000000     0.763210000000     0.106380000000     0.0401507  
H304     H      0.296060000000     0.719270000000     0.646550000000     0.102573   
H305     H      0.190420000000     0.983460000000     0.613360000000     0.0346063  
H306     H      0.228670000000     0.950570000000     0.082940000000     0.035299   
H307     H      0.186510000000     0.863020000000     0.577140000000     0.10215    
H308     H      0.236050000000     0.889790000000     0.113680000000     0.0550511  
H309     H      0.194240000000     0.920640000000     0.628630000000     0.0595539  
H310     H      0.180280000000     0.901070000000     0.081530000000     0.0346806  
H311     H      0.150810000000     0.935990000000     0.576220000000     0.043179   
H312     H      0.281400000000     0.930840000000     0.136550000000     0.102208   
H313     H      0.173940000000     0.747400000000     0.603130000000     0.0426148  
H314     H      0.177090000000     0.718140000000     0.643020000000     0.0360367  
H315     H      0.238680000000     0.691290000000     0.048800000000     0.101874   
H316     H      0.181920000000     0.675530000000     0.109410000000     0.062864   
H317     H      0.171140000000     0.715430000000     0.084430000000     0.0546421  
H318     H      0.236590000000     0.702340000000     0.609880000000     0.0417235  
H319     H      0.225180000000     0.725460000000     0.566940000000     0.0254957  
H320     H      0.127430000000     0.684780000000     0.145330000000     0.101355   
H321     H      0.479960000000     0.661190000000     0.956030000000     0.0322961  
H322     H      0.437160000000     0.649600000000     0.970650000000     0.0271735  
H323     H      0.429510000000     0.017750000000     0.013860000000     0.104667   
H324     H      0.430290000000     0.040400000000     0.949240000000     0.0570951  
H325     H      0.474200000000     0.045820000000     0.966400000000     0.0674095  
H326     H      0.430990000000     0.658710000000     0.038160000000     0.0375037  
H327     H      0.460470000000     0.636510000000     0.069760000000     0.0396487  
H328     H      0.451960000000     0.063500000000     0.878840000000     0.102215   
H329     H      0.219230000000     0.551490000000     0.903060000000     0.0369239  
H330     H      0.227220000000     0.594010000000     0.923720000000     0.0400835  
H331     H      0.328010000000     0.978100000000     0.990400000000     0.102894   
H332     H      0.246050000000     0.019960000000     0.004230000000     0.0766779  
H333     H      0.246400000000     0.983520000000     0.971480000000     0.0566242  
H334     H      0.286030000000     0.591480000000     0.948620000000     0.0368725  
H335     H      0.290910000000     0.554490000000     0.917100000000     0.0238905  
H336     H      0.185100000000     0.014220000000     0.976950000000     0.10514    
H337     H      0.112850000000     0.576380000000     0.714230000000     0.0402027  
H338     H      0.137180000000     0.616920000000     0.710930000000     0.038243   
H339     H      0.176200000000     0.090860000000     0.639240000000     0.102471   
H340     H      0.219140000000     0.112730000000     0.722070000000     0.0676581  
H341     H      0.173810000000     0.100970000000     0.726910000000     0.0661173  
H342     H      0.164150000000     0.610780000000     0.647660000000     0.0341962  
H343     H      0.130230000000     0.577700000000     0.643080000000     0.0248663  
H344     H      0.220230000000     0.144300000000     0.793500000000     0.104606   
H345     H      0.436680000000     0.156110000000     0.691720000000     0.0411184  
H346     H      0.378460000000     0.642700000000     0.763030000000     0.0295291  
H347     H      0.474890000000     0.071020000000     0.767410000000     0.102214   
H348     H      0.379650000000     0.587580000000     0.800980000000     0.0540833  
H349     H      0.435820000000     0.098170000000     0.723320000000     0.0626847  
H350     H      0.432610000000     0.628040000000     0.801740000000     0.0349453  
H351     H      0.493280000000     0.132030000000     0.727380000000     0.0383254  
H352     H      0.327670000000     0.600290000000     0.756370000000     0.10173    
H353     H      0.561470000000     0.682050000000     0.039830000000     0.0412741  
H354     H      0.558570000000     0.684440000000     0.989100000000     0.0406652  
H355     H      0.159550000000     0.710350000000     0.936120000000     0.102952   
H356     H      0.601520000000     0.737040000000     0.991420000000     0.0594152  
H357     H      0.105910000000     0.748440000000     0.016440000000     0.0601271  
H358     H      0.622240000000     0.662720000000     0.021050000000     0.0418198  
H359     H      0.653340000000     0.698410000000     0.019790000000     0.0241064  
H360     H      0.523280000000     0.734660000000     0.993450000000     0.102306   
H361     H      0.549360000000     0.939450000000     0.878110000000     0.0381298  
H362     H      0.111770000000     0.902220000000     0.908760000000     0.0252522  
H363     H      0.508080000000     0.857590000000     0.966850000000     0.103906   
H364     H      0.510250000000     0.920240000000     0.933230000000     0.0600346  
H365     H      0.531700000000     0.885320000000     0.907650000000     0.050351   
H366     H      0.065650000000     0.922680000000     0.982810000000     0.0405653  
H367     H      0.576550000000     0.878990000000     0.957100000000     0.0320264  
H368     H      0.557400000000     0.969070000000     0.956980000000     0.106844   
H369     H      0.559590000000     0.959550000000     0.671840000000     0.0433122  
H370     H      0.538650000000     0.954320000000     0.716710000000     0.0272944  
H371     H      0.108710000000     0.058790000000     0.710050000000     0.101415   
H372     H      0.101590000000     0.969170000000     0.743130000000     0.0654476  
H373     H      0.119380000000     0.979020000000     0.697190000000     0.0604562  
H374     H      0.547170000000     0.019410000000     0.726120000000     0.036308   
H375     H      0.571200000000     0.023120000000     0.682730000000     0.024673   
H376     H      0.103120000000     0.904960000000     0.717590000000     0.10195    
H377     H      0.081070000000     0.821930000000     0.751280000000     0.0418473  
H378     H      0.516770000000     0.792140000000     0.792700000000     0.0239086  
H379     H      0.133240000000     0.727120000000     0.816490000000     0.104256   
H380     H      0.115080000000     0.764480000000     0.751430000000     0.0664259  
H381     H      0.113080000000     0.785470000000     0.796890000000     0.0508976  
H382     H      0.551950000000     0.716960000000     0.777210000000     0.0458651  
H383     H      0.062490000000     0.744150000000     0.813950000000     0.0308701  
H384     H      0.028000000000     0.762980000000     0.739930000000     0.104177   
H385     H      0.010780000000     0.454920000000     0.685980000000     0.0376218  
H386     H      0.000990000000     0.472170000000     0.640750000000     0.0375585  
H387     H      0.944730000000     0.537860000000     0.165420000000     0.103669   
H388     H      0.923130000000     0.451210000000     0.180460000000     0.0556929  
H389     H      0.954680000000     0.482560000000     0.197090000000     0.0523961  
H390     H      0.909480000000     0.476910000000     0.655730000000     0.0405582  
H391     H      0.943150000000     0.491710000000     0.625080000000     0.0392224  
H392     H      0.943280000000     0.402600000000     0.137520000000     0.104633   
H393     H      0.894160000000     0.207180000000     0.561090000000     0.0372039  
H394     H      0.882410000000     0.244910000000     0.052250000000     0.027597   
H395     H      0.946350000000     0.235110000000     0.687750000000     0.104906   
H396     H      0.924840000000     0.196610000000     0.105490000000     0.0704241  
H397     H      0.942640000000     0.237930000000     0.592350000000     0.0657951  
H398     H      0.892080000000     0.244950000000     0.140340000000     0.0326615  
H399     H      0.910200000000     0.282590000000     0.631560000000     0.0424632  
H400     H      0.840160000000     0.230610000000     0.097770000000     0.103142   
H401     H      0.712410000000     0.478650000000     0.081860000000     0.0426377  
H402     H      0.704730000000     0.486980000000     0.558680000000     0.0357446  
H403     H      0.697040000000     0.367020000000     0.126010000000     0.103403   
H404     H      0.713010000000     0.422590000000     0.580360000000     0.0573695  
H405     H      0.730410000000     0.424540000000     0.119880000000     0.0585233  
H406     H      0.659810000000     0.440890000000     0.543240000000     0.0261849  
H407     H      0.666680000000     0.437040000000     0.111380000000     0.0367384  
H408     H      0.750680000000     0.461210000000     0.620120000000     0.102002   
H409     H      0.680510000000     0.255300000000     0.105280000000     0.0404096  
H410     H      0.696310000000     0.229170000000     0.144000000000     0.0364872  
H411     H      0.748450000000     0.167800000000     0.531870000000     0.105022   
H412     H      0.699330000000     0.171750000000     0.606330000000     0.0633767  
H413     H      0.685040000000     0.189150000000     0.561710000000     0.0569788  
H414     H      0.747510000000     0.219240000000     0.099330000000     0.0432983  
H415     H      0.727560000000     0.233230000000     0.055660000000     0.0257937  
H416     H      0.635760000000     0.193330000000     0.611440000000     0.101613   
H417     H      0.982100000000     0.103620000000     0.450220000000     0.0404532  
H418     H      0.938110000000     0.101490000000     0.431920000000     0.024948   
H419     H      0.925680000000     0.554130000000     0.521790000000     0.1062     
H420     H      0.985610000000     0.570690000000     0.509400000000     0.0658649  
H421     H      0.997110000000     0.616620000000     0.507720000000     0.0593807  
H422     H      0.918580000000     0.094110000000     0.498380000000     0.0351772  
H423     H      0.960640000000     0.087230000000     0.519320000000     0.0357117  
H424     H      0.950700000000     0.552860000000     0.433790000000     0.103905   
H425     H      0.733650000000     0.027220000000     0.421220000000     0.0333753  
H426     H      0.736860000000     0.065810000000     0.450520000000     0.043063   
H427     H      0.813820000000     0.498080000000     0.478170000000     0.103735   
H428     H      0.735040000000     0.540840000000     0.493630000000     0.0757039  
H429     H      0.732410000000     0.502420000000     0.464040000000     0.0556202  
H430     H      0.796270000000     0.048810000000     0.468340000000     0.0372943  
H431     H      0.796510000000     0.006340000000     0.444620000000     0.0234823  
H432     H      0.675550000000     0.547660000000     0.482710000000     0.105845   
H433     H      0.660510000000     0.169050000000     0.245390000000     0.0439816  
H434     H      0.706470000000     0.178690000000     0.240260000000     0.0299444  
H435     H      0.665290000000     0.556330000000     0.108490000000     0.104429   
H436     H      0.693910000000     0.582580000000     0.204150000000     0.0718068  
H437     H      0.661460000000     0.548350000000     0.197910000000     0.0598743  
H438     H      0.699930000000     0.162410000000     0.174060000000     0.0373347  
H439     H      0.656310000000     0.144530000000     0.177220000000     0.0274578  
H440     H      0.678830000000     0.581650000000     0.268330000000     0.10449    
H441     H      0.904190000000     0.620820000000     0.225620000000     0.0459726  
H442     H      0.931590000000     0.174750000000     0.231670000000     0.0271637  
H443     H      0.941520000000     0.546480000000     0.318640000000     0.102717   
H444     H      0.921680000000     0.116510000000     0.267110000000     0.0561657  
H445     H      0.905890000000     0.560320000000     0.256790000000     0.0598961  
H446     H      0.980500000000     0.145310000000     0.270590000000     0.0379836  
H447     H      0.958180000000     0.600400000000     0.261450000000     0.0412538  
H448     H      0.871870000000     0.156860000000     0.236370000000     0.101086   
H449     H      0.033370000000     0.182560000000     0.570550000000     0.0444176  
H450     H      0.005340000000     0.176730000000     0.530140000000     0.0272508  
H451     H      0.636330000000     0.174980000000     0.491690000000     0.102682   
H452     H      0.050360000000     0.204800000000     0.488830000000     0.0586661  
H453     H      0.583090000000     0.215080000000     0.520900000000     0.0617761  
H454     H      0.049850000000     0.138190000000     0.500510000000     0.0435928  
H455     H      0.081570000000     0.144430000000     0.537270000000     0.032806   
H456     H      0.997170000000     0.239690000000     0.524090000000     0.101287   
H457     H      0.085910000000     0.440250000000     0.413660000000     0.0391945  
H458     H      0.605330000000     0.446590000000     0.466140000000     0.0245517  
H459     H      0.015470000000     0.385820000000     0.504480000000     0.104702   
H460     H      0.033590000000     0.435060000000     0.456960000000     0.0628705  
H461     H      0.057480000000     0.394410000000     0.450010000000     0.0529295  
H462     H      0.537570000000     0.460440000000     0.522850000000     0.0384631  
H463     H      0.089730000000     0.406920000000     0.512280000000     0.0380525  
H464     H      0.099140000000     0.483470000000     0.484850000000     0.104579   
H465     H      0.043180000000     0.399570000000     0.232980000000     0.0367503  
H466     H      0.065310000000     0.399320000000     0.277230000000     0.0243176  
H467     H      0.554290000000     0.531660000000     0.239410000000     0.102523   
H468     H      0.592670000000     0.463160000000     0.275090000000     0.0615887  
H469     H      0.576040000000     0.464610000000     0.227550000000     0.065507   
H470     H      0.040210000000     0.459950000000     0.284050000000     0.0415618  
H471     H      0.026160000000     0.464570000000     0.236050000000     0.0259872  
H472     H      0.601370000000     0.387000000000     0.271970000000     0.101239   
H473     H      0.597190000000     0.311890000000     0.290830000000     0.0438461  
H474     H      0.093540000000     0.296380000000     0.286610000000     0.0278049  
H475     H      0.625530000000     0.228070000000     0.387750000000     0.102899   
H476     H      0.620270000000     0.247960000000     0.301290000000     0.068423   
H477     H      0.623400000000     0.278580000000     0.339950000000     0.0523368  
H478     H      0.065060000000     0.222530000000     0.315230000000     0.0398077  
H479     H      0.568970000000     0.253210000000     0.368010000000     0.0255513  
H480     H      0.540650000000     0.255530000000     0.279740000000     0.104577   
H481     H      0.982210000000     0.425530000000     0.198050000000     0.029664   
H482     H      0.002240000000     0.450880000000     0.161690000000     0.0416276  
H483     H      0.941220000000     0.548370000000     0.674340000000     0.103139   
H484     H      0.947130000000     0.465260000000     0.705500000000     0.0539853  
H485     H      0.973320000000     0.503590000000     0.697030000000     0.0520071  
H486     H      0.925560000000     0.472700000000     0.117460000000     0.0465747  
H487     H      0.968700000000     0.490510000000     0.123030000000     0.0358225  
H488     H      0.950740000000     0.416890000000     0.652590000000     0.104039   
H489     H      0.892140000000     0.198340000000     0.045270000000     0.0373373  
H490     H      0.882260000000     0.252510000000     0.572150000000     0.0276096  
H491     H      0.946520000000     0.234300000000     0.169200000000     0.104247   
H492     H      0.926840000000     0.202290000000     0.621240000000     0.0709176  
H493     H      0.942050000000     0.229450000000     0.073900000000     0.0648842  
H494     H      0.891860000000     0.247450000000     0.659480000000     0.0326293  
H495     H      0.910920000000     0.277780000000     0.109070000000     0.0426283  
H496     H      0.840560000000     0.232450000000     0.615700000000     0.103451   
H497     H      0.687390000000     0.496860000000     0.604450000000     0.0333336  
H498     H      0.716130000000     0.452100000000     0.039810000000     0.0305758  
H499     H      0.671120000000     0.378010000000     0.562320000000     0.101466   
H500     H      0.730540000000     0.398690000000     0.077200000000     0.0541623  
H501     H      0.690250000000     0.433590000000     0.623070000000     0.0588969  
H502     H      0.666750000000     0.410730000000     0.068650000000     0.0341712  
H503     H      0.636570000000     0.447750000000     0.587050000000     0.0404038  
H504     H      0.780100000000     0.438810000000     0.066510000000     0.102762   
H505     H      0.685120000000     0.251300000000     0.590930000000     0.0401748  
H506     H      0.695320000000     0.231380000000     0.635430000000     0.0368462  
H507     H      0.738510000000     0.176300000000     0.027960000000     0.104363   
H508     H      0.695460000000     0.174640000000     0.105290000000     0.0646117  
H509     H      0.675930000000     0.198010000000     0.066580000000     0.0553355  
H510     H      0.752330000000     0.212980000000     0.602520000000     0.043357   
H511     H      0.737620000000     0.226200000000     0.556210000000     0.0266629  
H512     H      0.634940000000     0.193360000000     0.124620000000     0.10106    
H513     H      0.992010000000     0.074440000000     0.964410000000     0.0421308  
H514     H      0.955810000000     0.086880000000     0.934860000000     0.0276255  
H515     H      0.936470000000     0.578290000000     0.011440000000     0.108675   
H516     H      0.996810000000     0.609140000000     0.014120000000     0.0690735  
H517     H      0.994710000000     0.656370000000     0.018930000000     0.0594732  
H518     H      0.915510000000     0.081110000000     0.991320000000     0.0349199  
H519     H      0.951320000000     0.067420000000     0.020330000000     0.0372184  
H520     H      0.952080000000     0.588320000000     0.941540000000     0.104335   
H521     H      0.713310000000     0.017080000000     0.920360000000     0.0317141  
H522     H      0.720470000000     0.058520000000     0.944010000000     0.0441349  
H523     H      0.823740000000     0.523770000000     0.951320000000     0.104244   
H524     H      0.737250000000     0.547000000000     0.979680000000     0.0772594  
H525     H      0.742600000000     0.513040000000     0.944720000000     0.0579312  
H526     H      0.778380000000     0.039150000000     0.963140000000     0.0370351  
H527     H      0.774490000000     0.994570000000     0.944660000000     0.0233053  
H528     H      0.677550000000     0.542860000000     0.969660000000     0.106302   
H529     H      0.661800000000     0.166130000000     0.742680000000     0.0425505  
H530     H      0.708150000000     0.174820000000     0.741080000000     0.0295369  
H531     H      0.659970000000     0.576850000000     0.605060000000     0.104479   
H532     H      0.687720000000     0.592650000000     0.704680000000     0.069588   
H533     H      0.656470000000     0.558710000000     0.692420000000     0.0596578  
H534     H      0.703590000000     0.156080000000     0.674910000000     0.0378393  
H535     H      0.660600000000     0.136530000000     0.676240000000     0.0273883  
H536     H      0.672180000000     0.589990000000     0.767690000000     0.104352   
H537     H      0.901670000000     0.634150000000     0.728490000000     0.0458949  
H538     H      0.932320000000     0.167920000000     0.750880000000     0.0273354  
H539     H      0.938050000000     0.568930000000     0.829300000000     0.103333   
H540     H      0.925740000000     0.106360000000     0.780070000000     0.0558246  
H541     H      0.903460000000     0.576280000000     0.765050000000     0.0600992  
H542     H      0.982590000000     0.138850000000     0.786570000000     0.0376891  
H543     H      0.955520000000     0.616930000000     0.766090000000     0.0408218  
H544     H      0.873650000000     0.145670000000     0.751800000000     0.100771   
H545     H      0.036160000000     0.177910000000     0.055540000000     0.0448074  
H546     H      0.015200000000     0.170000000000     0.010900000000     0.0281593  
H547     H      0.636130000000     0.174470000000     0.993900000000     0.102611   
H548     H      0.063660000000     0.191170000000     0.975410000000     0.0587547  
H549     H      0.584430000000     0.216070000000     0.026740000000     0.0600679  
H550     H      0.072810000000     0.131120000000     0.012940000000     0.0438354  
H551     H      0.100190000000     0.156630000000     0.043420000000     0.0304015  
H552     H      0.003660000000     0.232240000000     0.003240000000     0.101576   
H553     H      0.089770000000     0.459970000000     0.913010000000     0.0382467  
H554     H      0.599050000000     0.436330000000     0.956130000000     0.0253937  
H555     H      0.015590000000     0.393990000000     0.990940000000     0.104838   
H556     H      0.034130000000     0.449310000000     0.949950000000     0.0632879  
H557     H      0.060440000000     0.410400000000     0.942080000000     0.0528865  
H558     H      0.549630000000     0.447430000000     0.028640000000     0.0386662  
H559     H      0.086950000000     0.420810000000     0.008610000000     0.0395324  
H560     H      0.096210000000     0.498210000000     0.988170000000     0.104548   
H561     H      0.032240000000     0.411050000000     0.738440000000     0.0355346  
H562     H      0.046500000000     0.410150000000     0.786300000000     0.0237228  
H563     H      0.558430000000     0.516360000000     0.745350000000     0.103192   
H564     H      0.603670000000     0.455000000000     0.759260000000     0.0594976  
H565     H      0.570310000000     0.455400000000     0.723430000000     0.0652927  
H566     H      0.032380000000     0.473230000000     0.798550000000     0.0414712  
H567     H      0.013910000000     0.474290000000     0.752100000000     0.024242   
H568     H      0.619380000000     0.380140000000     0.752100000000     0.101406   
H569     H      0.639280000000     0.285500000000     0.756070000000     0.0428631  
H570     H      0.068800000000     0.297490000000     0.816140000000     0.0254697  
H571     H      0.627890000000     0.233120000000     0.882960000000     0.102605   
H572     H      0.630940000000     0.224390000000     0.787610000000     0.0699808  
H573     H      0.650870000000     0.258870000000     0.815100000000     0.0545845  
H574     H      0.066980000000     0.218820000000     0.831400000000     0.0422801  
H575     H      0.592930000000     0.271590000000     0.845980000000     0.0238426  
H576     H      0.569260000000     0.247810000000     0.758490000000     0.10775    
H577     H      0.999850000000     0.972390000000     0.599370000000     0.0445831  
H578     H      0.955320000000     0.985830000000     0.604480000000     0.0433789  
H579     H      0.954040000000     0.032810000000     0.159160000000     0.101405   
H580     H      0.971070000000     0.939220000000     0.179350000000     0.0541062  
H581     H      0.988830000000     0.982370000000     0.171470000000     0.0479326  
H582     H      0.956290000000     0.989290000000     0.708660000000     0.0264431  
H583     H      0.927400000000     0.973870000000     0.672350000000     0.0435683  
H584     H      0.939870000000     0.909810000000     0.113420000000     0.105093   
H585     H      0.848710000000     0.731730000000     0.601590000000     0.0363068  
H586     H      0.829710000000     0.757230000000     0.113960000000     0.0232915  
H587     H      0.937070000000     0.754690000000     0.677810000000     0.104942   
H588     H      0.881710000000     0.746730000000     0.151380000000     0.0585716  
H589     H      0.889080000000     0.720130000000     0.652350000000     0.0703716  
H590     H      0.901800000000     0.775480000000     0.095730000000     0.0413585  
H591     H      0.898080000000     0.776720000000     0.608740000000     0.0415736  
H592     H      0.802110000000     0.720150000000     0.157390000000     0.102024   
H593     H      0.683760000000     0.987590000000     0.116520000000     0.0344716  
H594     H      0.724910000000     0.969710000000     0.583340000000     0.0370652  
H595     H      0.694480000000     0.862530000000     0.083610000000     0.101667   
H596     H      0.736020000000     0.906490000000     0.607480000000     0.0557102  
H597     H      0.682200000000     0.927310000000     0.135260000000     0.0601162  
H598     H      0.684120000000     0.915090000000     0.568190000000     0.0318616  
H599     H      0.654310000000     0.931890000000     0.070310000000     0.0429811  
H600     H      0.770860000000     0.949010000000     0.646540000000     0.10192    
H601     H      0.686330000000     0.744670000000     0.144000000000     0.0441956  
H602     H      0.691580000000     0.702630000000     0.168050000000     0.035416   
H603     H      0.739900000000     0.698110000000     0.546930000000     0.101702   
H604     H      0.684720000000     0.680250000000     0.612180000000     0.0653009  
H605     H      0.671500000000     0.719390000000     0.587040000000     0.0554471  
H606     H      0.743280000000     0.706700000000     0.122710000000     0.0415352  
H607     H      0.728030000000     0.732190000000     0.082980000000     0.0254902  
H608     H      0.630770000000     0.691430000000     0.651840000000     0.10211    
H609     H      0.967720000000     0.626910000000     0.452020000000     0.0284129  
H610     H      0.930340000000     0.602220000000     0.465890000000     0.0275406  
H611     H      0.928860000000     0.019210000000     0.521760000000     0.104801   
H612     H      0.931500000000     0.040010000000     0.455540000000     0.057381   
H613     H      0.975390000000     0.040580000000     0.473770000000     0.0643021  
H614     H      0.935240000000     0.631930000000     0.530040000000     0.0346896  
H615     H      0.961550000000     0.607310000000     0.563030000000     0.0370387  
H616     H      0.954640000000     0.058220000000     0.385850000000     0.102337   
H617     H      0.711590000000     0.536950000000     0.411200000000     0.0355952  
H618     H      0.725700000000     0.578170000000     0.431120000000     0.0408791  
H619     H      0.824000000000     0.981130000000     0.497240000000     0.103105   
H620     H      0.743800000000     0.025550000000     0.507350000000     0.075657   
H621     H      0.743240000000     0.987400000000     0.476880000000     0.0559938  
H622     H      0.783800000000     0.564550000000     0.448510000000     0.0367698  
H623     H      0.782920000000     0.521520000000     0.426700000000     0.0237972  
H624     H      0.682520000000     0.017480000000     0.478950000000     0.104725   
H625     H      0.615000000000     0.587010000000     0.220670000000     0.0416683  
H626     H      0.642120000000     0.625760000000     0.218550000000     0.0366587  
H627     H      0.673420000000     0.095860000000     0.140980000000     0.102155   
H628     H      0.718280000000     0.115680000000     0.223370000000     0.0675143  
H629     H      0.672730000000     0.104870000000     0.228500000000     0.0668313  
H630     H      0.667320000000     0.619380000000     0.154690000000     0.0322863  
H631     H      0.631500000000     0.588570000000     0.149740000000     0.0248229  
H632     H      0.720030000000     0.146840000000     0.295750000000     0.104678   
H633     H      0.937680000000     0.148990000000     0.189210000000     0.0431289  
H634     H      0.885050000000     0.638750000000     0.267770000000     0.0285887  
H635     H      0.970330000000     0.067260000000     0.272260000000     0.102581   
H636     H      0.888010000000     0.579880000000     0.298940000000     0.0540091  
H637     H      0.933830000000     0.093330000000     0.224800000000     0.0609302  
H638     H      0.940370000000     0.621030000000     0.302600000000     0.0340982  
H639     H      0.993040000000     0.124310000000     0.227300000000     0.0386288  
H640     H      0.833830000000     0.598520000000     0.259670000000     0.101768   
H641     H      0.009300000000     0.686300000000     0.537870000000     0.041706   
H642     H      0.974290000000     0.681280000000     0.504840000000     0.0234953  
H643     H      0.662520000000     0.706960000000     0.449170000000     0.10313    
H644     H      0.018650000000     0.665780000000     0.465410000000     0.0667169  
H645     H      0.607700000000     0.744820000000     0.528650000000     0.0610436  
H646     H      0.067900000000     0.672910000000     0.510650000000     0.0402865  
H647     H      0.066390000000     0.720370000000     0.504840000000     0.0357299  
H648     H      0.970630000000     0.744270000000     0.494410000000     0.103284   
H649     H      0.064180000000     0.927940000000     0.366060000000     0.0394217  
H650     H      0.606250000000     0.905910000000     0.409830000000     0.025804   
H651     H      0.998840000000     0.870070000000     0.460660000000     0.103872   
H652     H      0.017520000000     0.924850000000     0.414240000000     0.0600625  
H653     H      0.032990000000     0.881040000000     0.402360000000     0.0509086  
H654     H      0.559640000000     0.925310000000     0.484930000000     0.0410417  
H655     H      0.072930000000     0.884370000000     0.460910000000     0.0360368  
H656     H      0.095280000000     0.951820000000     0.441260000000     0.10504    
H657     H      0.049040000000     0.949960000000     0.171960000000     0.0427697  
H658     H      0.029010000000     0.946990000000     0.217400000000     0.0259613  
H659     H      0.611150000000     0.061300000000     0.211400000000     0.101232   
H660     H      0.604480000000     0.971490000000     0.245610000000     0.065349   
H661     H      0.625020000000     0.982130000000     0.201230000000     0.0593408  
H662     H      0.040630000000     0.011600000000     0.223820000000     0.0356547  
H663     H      0.064280000000     0.013360000000     0.180040000000     0.0244408  
H664     H      0.611600000000     0.909180000000     0.220800000000     0.101898   
H665     H      0.592180000000     0.825300000000     0.262650000000     0.0414969  
H666     H      0.986890000000     0.768720000000     0.274310000000     0.0232338  
H667     H      0.638360000000     0.728380000000     0.329430000000     0.104183   
H668     H      0.622840000000     0.766810000000     0.264250000000     0.0665799  
H669     H      0.621310000000     0.787520000000     0.309830000000     0.0507822  
H670     H      0.037410000000     0.704380000000     0.271280000000     0.04678    
H671     H      0.568290000000     0.748390000000     0.325440000000     0.0310178  
H672     H      0.534430000000     0.770940000000     0.253810000000     0.103939   
H673     H      0.004000000000     0.958470000000     0.114130000000     0.0448117  
H674     H      0.960730000000     0.971210000000     0.101180000000     0.0383235  
H675     H      0.965450000000     0.045920000000     0.674240000000     0.101145   
H676     H      0.991430000000     0.950750000000     0.671850000000     0.0563663  
H677     H      0.004540000000     0.994770000000     0.659620000000     0.0503471  
H678     H      0.926350000000     0.979070000000     0.198050000000     0.0293099  
H679     H      0.912150000000     0.963820000000     0.152910000000     0.0433678  
H680     H      0.937160000000     0.925330000000     0.613370000000     0.108965   
H681     H      0.837660000000     0.718580000000     0.084990000000     0.0341144  
H682     H      0.829140000000     0.768560000000     0.626920000000     0.0235064  
H683     H      0.939570000000     0.703710000000     0.101100000000     0.108035   
H684     H      0.867480000000     0.750730000000     0.683590000000     0.0578519  
H685     H      0.887350000000     0.703120000000     0.132370000000     0.0749657  
H686     H      0.887830000000     0.802110000000     0.650490000000     0.0336139  
H687     H      0.891930000000     0.737940000000     0.066200000000     0.0317645  
H688     H      0.797830000000     0.729550000000     0.664950000000     0.101899   
H689     H      0.705560000000     0.980090000000     0.628030000000     0.0352506  
H690     H      0.710740000000     0.979210000000     0.076300000000     0.037715   
H691     H      0.691410000000     0.859750000000     0.618080000000     0.101691   
H692     H      0.722800000000     0.916670000000     0.112610000000     0.0578889  
H693     H      0.712250000000     0.918060000000     0.649450000000     0.0575368  
H694     H      0.695550000000     0.920120000000     0.049760000000     0.0273357  
H695     H      0.659540000000     0.932250000000     0.607400000000     0.040291   
H696     H      0.744830000000     0.962990000000     0.150180000000     0.101306   
H697     H      0.681010000000     0.754840000000     0.648120000000     0.0445377  
H698     H      0.689810000000     0.712820000000     0.671150000000     0.0360004  
H699     H      0.737320000000     0.682870000000     0.042370000000     0.102466   
H700     H      0.684720000000     0.668910000000     0.110950000000     0.0644482  
H701     H      0.671610000000     0.707350000000     0.084490000000     0.0556343  
H702     H      0.741760000000     0.719020000000     0.628270000000     0.0406427  
H703     H      0.727410000000     0.745600000000     0.588930000000     0.0244073  
H704     H      0.630620000000     0.686740000000     0.152930000000     0.103127   
H705     H      0.982610000000     0.659250000000     0.956330000000     0.0343311  
H706     H      0.939870000000     0.644520000000     0.967410000000     0.027494   
H707     H      0.906730000000     0.006380000000     0.013260000000     0.104522   
H708     H      0.926450000000     0.029120000000     0.948190000000     0.0551586  
H709     H      0.962810000000     0.015720000000     0.977170000000     0.0609338  
H710     H      0.931290000000     0.653090000000     0.034870000000     0.0362524  
H711     H      0.958870000000     0.629180000000     0.067020000000     0.0403171  
H712     H      0.969200000000     0.030740000000     0.895860000000     0.102706   
H713     H      0.713040000000     0.547340000000     0.897480000000     0.0361421  
H714     H      0.719570000000     0.588490000000     0.921590000000     0.0414168  
H715     H      0.800610000000     0.972370000000     0.999500000000     0.102904   
H716     H      0.725400000000     0.025200000000     0.005740000000     0.0754533  
H717     H      0.720970000000     0.983770000000     0.980800000000     0.0551507  
H718     H      0.779240000000     0.586770000000     0.943350000000     0.0374706  
H719     H      0.785100000000     0.551560000000     0.909820000000     0.0238426  
H720     H      0.662060000000     0.016360000000     0.976930000000     0.104123   
H721     H      0.608430000000     0.591400000000     0.718830000000     0.043317   
H722     H      0.632230000000     0.632340000000     0.720240000000     0.0365831  
H723     H      0.681620000000     0.086650000000     0.644300000000     0.102416   
H724     H      0.720490000000     0.111600000000     0.727740000000     0.0669743  
H725     H      0.674820000000     0.100650000000     0.730790000000     0.06494    
H726     H      0.664450000000     0.633950000000     0.658890000000     0.0314593  
H727     H      0.627200000000     0.605950000000     0.649470000000     0.0253816  
H728     H      0.717260000000     0.143850000000     0.798600000000     0.10421    
H729     H      0.940960000000     0.146840000000     0.706190000000     0.0442441  
H730     H      0.881560000000     0.655000000000     0.768550000000     0.0287936  
H731     H      0.977750000000     0.060520000000     0.783300000000     0.101798   
H732     H      0.885270000000     0.599220000000     0.805080000000     0.0538249  
H733     H      0.939610000000     0.087680000000     0.735890000000     0.0609139  
H734     H      0.937420000000     0.640720000000     0.805190000000     0.0333145  
H735     H      0.996670000000     0.121990000000     0.741920000000     0.0391686  
H736     H      0.831640000000     0.611580000000     0.763290000000     0.101151   
H737     H      0.062880000000     0.696770000000     0.004320000000     0.0460639  
H738     H      0.063640000000     0.709250000000     0.955190000000     0.0347616  
H739     H      0.652720000000     0.700740000000     0.953580000000     0.103673   
H740     H      0.109260000000     0.754170000000     0.966660000000     0.0548962  
H741     H      0.605780000000     0.729540000000     0.040910000000     0.0623211  
H742     H      0.124210000000     0.681970000000     0.006050000000     0.0423919  
H743     H      0.155980000000     0.716250000000     0.002360000000     0.0238857  
H744     H      0.028740000000     0.759010000000     0.968670000000     0.102276   
H745     H      0.084020000000     0.924880000000     0.875570000000     0.0384416  
H746     H      0.586320000000     0.925200000000     0.904930000000     0.0292003  
H747     H      0.012370000000     0.871050000000     0.966200000000     0.104317   
H748     H      0.034690000000     0.922510000000     0.921280000000     0.0610827  
H749     H      0.051410000000     0.878970000000     0.910480000000     0.050802   
H750     H      0.559330000000     0.915720000000     0.983060000000     0.0413345  
H751     H      0.087480000000     0.881900000000     0.971510000000     0.0345609  
H752     H      0.108650000000     0.953180000000     0.951690000000     0.10469    
H753     H      0.063400000000     0.957490000000     0.667870000000     0.0431553  
H754     H      0.047490000000     0.945020000000     0.713620000000     0.0275744  
H755     H      0.609610000000     0.061950000000     0.711040000000     0.100904   
H756     H      0.591750000000     0.975370000000     0.749880000000     0.0669418  
H757     H      0.614730000000     0.978960000000     0.705670000000     0.0609117  
H758     H      0.051200000000     0.010120000000     0.729950000000     0.0365079  
H759     H      0.069090000000     0.019580000000     0.684130000000     0.0234276  
H760     H      0.586860000000     0.909290000000     0.733110000000     0.102427   
H761     H      0.547290000000     0.818450000000     0.766040000000     0.0400658  
H762     H      0.051600000000     0.804030000000     0.785170000000     0.0239756  
H763     H      0.608970000000     0.729790000000     0.831390000000     0.104509   
H764     H      0.591590000000     0.769650000000     0.770990000000     0.0676148  
H765     H      0.577620000000     0.785880000000     0.816160000000     0.0513863  
H766     H      0.069030000000     0.721720000000     0.769520000000     0.0447614  
H767     H      0.535500000000     0.733690000000     0.820900000000     0.0332869  
H768     H      0.507970000000     0.753070000000     0.740990000000     0.104368   
N1       N      0.428490000000     0.522740000000     0.648030000000    -0.216884   
N2       N      0.453540000000     0.404630000000     0.652590000000    -0.215099   
N3       N      0.444820000000     0.248320000000     0.653510000000    -0.218085   
N4       N      0.359230000000     0.202850000000     0.100430000000    -0.217558   
N5       N      0.173720000000     0.379550000000     0.083450000000    -0.218166   
N6       N      0.270380000000     0.455740000000     0.560060000000    -0.217625   
N7       N      0.251780000000     0.157070000000     0.056450000000    -0.216693   
N8       N      0.145100000000     0.208990000000     0.109200000000    -0.217485   
N9       N      0.428940000000     0.598520000000     0.531190000000    -0.217066   
N10      N      0.472140000000     0.607420000000     0.448510000000    -0.220224   
N11      N      0.311300000000     0.548150000000     0.459650000000    -0.217622   
N12      N      0.181810000000     0.032930000000     0.453140000000    -0.215443   
N13      N      0.202900000000     0.090150000000     0.159340000000    -0.21882    
N14      N      0.191450000000     0.140810000000     0.285690000000    -0.218594   
N15      N      0.456560000000     0.590570000000     0.320230000000    -0.216736   
N16      N      0.389220000000     0.138130000000     0.225060000000    -0.217065   
N17      N      0.100280000000     0.155750000000     0.482800000000    -0.215063   
N18      N      0.516600000000     0.226910000000     0.534080000000    -0.217949   
N19      N      0.522560000000     0.406580000000     0.520290000000    -0.217242   
N20      N      0.580340000000     0.496400000000     0.469950000000    -0.218444   
N21      N      0.551580000000     0.521430000000     0.266610000000    -0.217494   
N22      N      0.095800000000     0.381790000000     0.231750000000    -0.216693   
N23      N      0.101940000000     0.213610000000     0.358830000000    -0.218156   
N24      N      0.080860000000     0.258990000000     0.244330000000    -0.215019   
N25      N      0.431570000000     0.532280000000     0.155910000000    -0.216641   
N26      N      0.467390000000     0.415380000000     0.160370000000    -0.214034   
N27      N      0.442700000000     0.248380000000     0.164750000000    -0.216666   
N28      N      0.357360000000     0.208970000000     0.590580000000    -0.21851    
N29      N      0.181870000000     0.378700000000     0.616840000000    -0.217716   
N30      N      0.264940000000     0.469580000000     0.076970000000    -0.21849    
N31      N      0.249170000000     0.176710000000     0.554390000000    -0.217426   
N32      N      0.146760000000     0.217910000000     0.623950000000    -0.21807    
N33      N      0.428980000000     0.602310000000     0.037200000000    -0.217643   
N34      N      0.467920000000     0.606470000000     0.951800000000    -0.220193   
N35      N      0.310700000000     0.546220000000     0.971820000000    -0.218524   
N36      N      0.193530000000     0.031850000000     0.956070000000    -0.215827   
N37      N      0.195850000000     0.105550000000     0.652450000000    -0.219671   
N38      N      0.194360000000     0.143180000000     0.784280000000    -0.21861    
N39      N      0.448260000000     0.576000000000     0.816080000000    -0.216308   
N40      N      0.385870000000     0.150360000000     0.715890000000    -0.217776   
N41      N      0.118940000000     0.152610000000     0.987890000000    -0.216917   
N42      N      0.519630000000     0.227800000000     0.048260000000    -0.216927   
N43      N      0.526960000000     0.396410000000     0.027680000000    -0.217391   
N44      N      0.575990000000     0.486220000000     0.966720000000    -0.217119   
N45      N      0.555660000000     0.507540000000     0.773100000000    -0.216821   
N46      N      0.083630000000     0.391490000000     0.747800000000    -0.216139   
N47      N      0.109750000000     0.211870000000     0.869290000000    -0.218429   
N48      N      0.067710000000     0.266350000000     0.766710000000    -0.214079   
N49      N      0.433870000000     0.019710000000     0.663710000000    -0.216797   
N50      N      0.463370000000     0.918410000000     0.614870000000    -0.214864   
N51      N      0.438470000000     0.741220000000     0.626560000000    -0.217993   
N52      N      0.320670000000     0.716780000000     0.148250000000    -0.218841   
N53      N      0.169060000000     0.868980000000     0.128860000000    -0.217957   
N54      N      0.244230000000     0.973790000000     0.620850000000    -0.218712   
N55      N      0.239740000000     0.686310000000     0.077700000000    -0.217061   
N56      N      0.134090000000     0.711710000000     0.147440000000    -0.21658    
N57      N      0.416860000000     0.036410000000     0.525400000000    -0.218667   
N58      N      0.483690000000     0.054290000000     0.409840000000    -0.218528   
N59      N      0.301010000000     0.003120000000     0.496830000000    -0.218325   
N60      N      0.185530000000     0.569250000000     0.442360000000    -0.216362   
N61      N      0.181880000000     0.575730000000     0.133820000000    -0.218484   
N62      N      0.155880000000     0.622780000000     0.260060000000    -0.217634   
N63      N      0.493760000000     0.084630000000     0.282370000000    -0.215062   
N64      N      0.352610000000     0.619780000000     0.244730000000    -0.21708    
N65      N      0.085070000000     0.692050000000     0.457750000000    -0.217242   
N66      N      0.541510000000     0.741920000000     0.505450000000    -0.218964   
N67      N      0.530590000000     0.877980000000     0.485610000000    -0.217361   
N68      N      0.592710000000     0.957860000000     0.426460000000    -0.217942   
N69      N      0.599960000000     0.043380000000     0.230400000000    -0.218346   
N70      N      0.066440000000     0.907460000000     0.207320000000    -0.215754   
N71      N      0.068100000000     0.712200000000     0.320060000000    -0.216722   
N72      N      0.010040000000     0.753400000000     0.222910000000    -0.217794   
N73      N      0.448090000000     0.018320000000     0.165670000000    -0.21702    
N74      N      0.466470000000     0.916580000000     0.111480000000    -0.21503    
N75      N      0.441710000000     0.757080000000     0.153090000000    -0.217252   
N76      N      0.316400000000     0.706570000000     0.632290000000    -0.218115   
N77      N      0.165640000000     0.880940000000     0.576160000000    -0.217519   
N78      N      0.267720000000     0.952210000000     0.124740000000    -0.218679   
N79      N      0.237780000000     0.671390000000     0.559710000000    -0.217606   
N80      N      0.129240000000     0.715430000000     0.614100000000    -0.217782   
N81      N      0.424080000000     0.043790000000     0.022530000000    -0.218572   
N82      N      0.469270000000     0.074390000000     0.898430000000    -0.219443   
N83      N      0.313320000000     0.000520000000     0.997600000000    -0.217875   
N84      N      0.185260000000     0.565940000000     0.947610000000    -0.21666    
N85      N      0.179650000000     0.561930000000     0.623350000000    -0.218941   
N86      N      0.150790000000     0.584530000000     0.756680000000    -0.217771   
N87      N      0.489590000000     0.094260000000     0.771000000000    -0.215405   
N88      N      0.346490000000     0.605270000000     0.735750000000    -0.216507   
N89      N      0.141180000000     0.694820000000     0.950370000000    -0.217871   
N90      N      0.537240000000     0.728270000000     0.017790000000    -0.219211   
N91      N      0.527940000000     0.869500000000     0.982630000000    -0.217607   
N92      N      0.559640000000     0.969360000000     0.927710000000    -0.219316   
N93      N      0.596050000000     0.045630000000     0.729850000000    -0.217976   
N94      N      0.089210000000     0.913770000000     0.694070000000    -0.215689   
N95      N      0.109380000000     0.715380000000     0.809420000000    -0.218452   
N96      N      0.048060000000     0.780130000000     0.731670000000    -0.214707   
N97      N      0.923560000000     0.531620000000     0.660600000000    -0.216592   
N98      N      0.977430000000     0.422560000000     0.653250000000    -0.214399   
N99      N      0.945650000000     0.254640000000     0.666810000000    -0.216766   
N100     N      0.856600000000     0.209870000000     0.089380000000    -0.218392   
N101     N      0.674850000000     0.381810000000     0.118880000000    -0.217755   
N102     N      0.740530000000     0.481960000000     0.603790000000    -0.219694   
N103     N      0.745150000000     0.179980000000     0.056210000000    -0.217542   
N104     N      0.643970000000     0.219280000000     0.129220000000    -0.217473   
N105     N      0.921600000000     0.577580000000     0.537070000000    -0.218711   
N106     N      0.969760000000     0.571540000000     0.441050000000    -0.219275   
N107     N      0.801030000000     0.522230000000     0.482890000000    -0.219552   
N108     N      0.691230000000     0.035100000000     0.458180000000    -0.215839   
N109     N      0.693760000000     0.109760000000     0.153930000000    -0.219797   
N110     N      0.694230000000     0.145940000000     0.286270000000    -0.218591   
N111     N      0.956920000000     0.568010000000     0.310130000000    -0.215781   
N112     N      0.886560000000     0.147580000000     0.213620000000    -0.21753    
N113     N      0.615990000000     0.156700000000     0.488510000000    -0.21658    
N114     N      0.012760000000     0.230100000000     0.545990000000    -0.217196   
N115     N      0.036930000000     0.392750000000     0.521120000000    -0.21735    
N116     N      0.089350000000     0.478710000000     0.457870000000    -0.217419   
N117     N      0.058970000000     0.505750000000     0.254390000000    -0.217989   
N118     N      0.584770000000     0.395670000000     0.250510000000    -0.215434   
N119     N      0.609050000000     0.215230000000     0.368640000000    -0.217959   
N120     N      0.561400000000     0.271980000000     0.271880000000    -0.214359   
N121     N      0.929940000000     0.522670000000     0.146620000000    -0.216586   
N122     N      0.969370000000     0.408290000000     0.143600000000    -0.214827   
N123     N      0.946100000000     0.251680000000     0.146220000000    -0.217295   
N124     N      0.858220000000     0.213350000000     0.605970000000    -0.218297   
N125     N      0.652020000000     0.394170000000     0.574580000000    -0.21799    
N126     N      0.763840000000     0.461150000000     0.067650000000    -0.218028   
N127     N      0.753630000000     0.172750000000     0.560260000000    -0.217448   
N128     N      0.645220000000     0.219280000000     0.614600000000    -0.217633   
N129     N      0.928200000000     0.596800000000     0.031500000000    -0.217246   
N130     N      0.973660000000     0.604250000000     0.947860000000    -0.219743   
N131     N      0.806290000000     0.541680000000     0.963640000000    -0.218154   
N132     N      0.672470000000     0.033110000000     0.956280000000    -0.217076   
N133     N      0.700610000000     0.102270000000     0.657430000000    -0.219394   
N134     N      0.692030000000     0.144320000000     0.787450000000    -0.218945   
N135     N      0.954030000000     0.588590000000     0.817570000000    -0.216564   
N136     N      0.889400000000     0.140140000000     0.728520000000    -0.216772   
N137     N      0.614150000000     0.158260000000     0.990830000000    -0.216794   
N138     N      0.018000000000     0.224070000000     0.026710000000    -0.21787    
N139     N      0.035380000000     0.400620000000     0.009960000000    -0.21747    
N140     N      0.087680000000     0.494930000000     0.960450000000    -0.21785    
N141     N      0.047910000000     0.516620000000     0.763200000000    -0.217527   
N142     N      0.597070000000     0.387970000000     0.737350000000    -0.217123   
N143     N      0.612680000000     0.221580000000     0.861810000000    -0.218961   
N144     N      0.588080000000     0.265100000000     0.747640000000    -0.216025   
N145     N      0.945390000000     0.028050000000     0.667860000000    -0.21721    
N146     N      0.963820000000     0.930550000000     0.610690000000    -0.21498    
N147     N      0.933360000000     0.770690000000     0.654040000000    -0.216308   
N148     N      0.820180000000     0.707510000000     0.139880000000    -0.218765   
N149     N      0.672570000000     0.878970000000     0.081310000000    -0.217917   
N150     N      0.759490000000     0.968850000000     0.629900000000    -0.219207   
N151     N      0.739270000000     0.678270000000     0.071280000000    -0.218117   
N152     N      0.640460000000     0.712480000000     0.149280000000    -0.217242   
N153     N      0.924350000000     0.045930000000     0.528520000000    -0.218959   
N154     N      0.973660000000     0.067820000000     0.404330000000    -0.218348   
N155     N      0.810480000000     0.004830000000     0.502180000000    -0.218348   
N156     N      0.680180000000     0.557040000000     0.455460000000    -0.216894   
N157     N      0.679630000000     0.570440000000     0.128580000000    -0.218949   
N158     N      0.653660000000     0.591210000000     0.263130000000    -0.217611   
N159     N      0.986980000000     0.089330000000     0.273200000000    -0.214616   
N160     N      0.852040000000     0.603720000000     0.238490000000    -0.216702   
N161     N      0.642730000000     0.692130000000     0.461970000000    -0.218036   
N162     N      0.987600000000     0.734290000000     0.514880000000    -0.217226   
N163     N      0.020190000000     0.878870000000     0.476440000000    -0.217925   
N164     N      0.083490000000     0.954820000000     0.414940000000    -0.217974   
N165     N      0.090510000000     0.035750000000     0.226380000000    -0.217938   
N166     N      0.596440000000     0.915500000000     0.197270000000    -0.21642    
N167     N      0.614050000000     0.717760000000     0.322160000000    -0.218062   
N168     N      0.556080000000     0.785540000000     0.244760000000    -0.2153     
N169     N      0.931580000000     0.017410000000     0.155490000000    -0.216989   
N170     N      0.966360000000     0.916330000000     0.112620000000    -0.2146     
N171     N      0.937140000000     0.731300000000     0.097910000000    -0.218807   
N172     N      0.817570000000     0.717970000000     0.648760000000    -0.219581   
N173     N      0.671450000000     0.876910000000     0.609430000000    -0.217952   
N174     N      0.737230000000     0.980460000000     0.128770000000    -0.218312   
N175     N      0.740380000000     0.692340000000     0.575690000000    -0.218764   
N176     N      0.638290000000     0.718200000000     0.651740000000    -0.216711   
N177     N      0.907800000000     0.033170000000     0.021250000000    -0.218857   
N178     N      0.986200000000     0.045270000000     0.913000000000    -0.218297   
N179     N      0.789940000000     0.997890000000     0.001610000000    -0.218787   
N180     N      0.679680000000     0.556350000000     0.944020000000    -0.216021   
N181     N      0.674680000000     0.587700000000     0.627020000000    -0.219966   
N182     N      0.646030000000     0.596130000000     0.762410000000    -0.217336   
N183     N      0.993100000000     0.083500000000     0.784940000000    -0.215057   
N184     N      0.849610000000     0.617100000000     0.741960000000    -0.217188   
N185     N      0.635220000000     0.683320000000     0.966620000000    -0.21766    
N186     N      0.040970000000     0.747080000000     0.991710000000    -0.219191   
N187     N      0.033720000000     0.877350000000     0.983280000000    -0.217397   
N188     N      0.098700000000     0.954600000000     0.924360000000    -0.217777   
N189     N      0.097630000000     0.040960000000     0.729210000000    -0.21846    
N190     N      0.578040000000     0.916890000000     0.706460000000    -0.215684   
N191     N      0.587250000000     0.715050000000     0.822760000000    -0.218275   
N192     N      0.527360000000     0.772470000000     0.738270000000    -0.216544   
O1       O      0.133950000000     0.127250000000     0.293520000000    -0.362154   
O2       O      0.576530000000     0.556160000000     0.463880000000    -0.373561   
O3       O      0.167120000000     0.074920000000     0.409570000000    -0.379067   
O4       O      0.552090000000     0.532130000000     0.329880000000    -0.383914   
O5       O      0.126520000000     0.574150000000     0.442260000000    -0.362353   
O6       O      0.062230000000     0.560690000000     0.280430000000    -0.364653   
O7       O      0.565170000000     0.521900000000     0.413970000000    -0.396151   
O8       O      0.170880000000     0.122160000000     0.341890000000    -0.380573   
O9       O      0.544570000000     0.109670000000     0.304450000000    -0.373325   
O10      O      0.592530000000     0.110870000000     0.454950000000    -0.38725    
O11      O      0.125620000000     0.161830000000     0.378400000000    -0.367401   
O12      O      0.506820000000     0.571170000000     0.413680000000    -0.367872   
O13      O      0.530770000000     0.616060000000     0.445740000000    -0.396819   
O14      O      0.087820000000     0.161000000000     0.330500000000    -0.380136   
O15      O      0.500740000000     0.565500000000     0.352770000000    -0.359212   
O16      O      0.128860000000     0.135330000000     0.431190000000    -0.360761   
O17      O      0.085760000000     0.579060000000     0.367220000000    -0.61189    
O18      O      0.056900000000     0.257370000000     0.186160000000    -0.373063   
O19      O      0.511870000000     0.393830000000     0.648620000000    -0.377176   
O20      O      0.114620000000     0.342180000000     0.188260000000    -0.363462   
O21      O      0.471260000000     0.289660000000     0.616390000000    -0.372158   
O22      O      0.567500000000     0.390040000000     0.189330000000    -0.367069   
O23      O      0.500570000000     0.256380000000     0.172630000000    -0.369672   
O24      O      0.474730000000     0.358860000000     0.617470000000    -0.370524   
O25      O      0.105470000000     0.288760000000     0.195160000000    -0.361722   
O26      O      0.038800000000     0.240880000000     0.602510000000    -0.363819   
O27      O      0.122400000000     0.382950000000     0.618170000000    -0.372058   
O28      O      0.136250000000     0.266730000000     0.125740000000    -0.371442   
O29      O      0.507040000000     0.359060000000     0.555450000000    -0.372512   
O30      O      0.546690000000     0.396990000000     0.578050000000    -0.363242   
O31      O      0.090860000000     0.229870000000     0.121750000000    -0.363633   
O32      O      0.507010000000     0.281510000000     0.559380000000    -0.370194   
O33      O      0.145780000000     0.334120000000     0.111450000000    -0.379113   
O34      O      0.564320000000     0.315720000000     0.130330000000    -0.584197   
O35      O      0.393250000000     0.116450000000     0.165250000000    -0.363789   
O36      O      0.263590000000     0.515850000000     0.563260000000    -0.369505   
O37      O      0.259890000000     0.107250000000     0.162240000000    -0.376402   
O38      O      0.383430000000     0.520000000000     0.606160000000    -0.373198   
O39      O      0.229460000000     0.571930000000     0.096490000000    -0.364707   
O40      O      0.397250000000     0.580480000000     0.145280000000    -0.363909   
O41      O      0.316910000000     0.492310000000     0.567040000000    -0.374799   
O42      O      0.340780000000     0.123400000000     0.191610000000    -0.382151   
O43      O      0.393970000000     0.078200000000     0.564820000000    -0.387951   
O44      O      0.270450000000     0.120510000000     0.558060000000    -0.388761   
O45      O      0.327780000000     0.161630000000     0.131700000000    -0.365278   
O46      O      0.335300000000     0.534040000000     0.516480000000    -0.362948   
O47      O      0.289310000000     0.570150000000     0.514050000000    -0.384999   
O48      O      0.375750000000     0.144350000000     0.100980000000    -0.379062   
O49      O      0.387280000000     0.558400000000     0.547380000000    -0.368829   
O50      O      0.278150000000     0.141370000000     0.111550000000    -0.354124   
O51      O      0.315460000000     0.580040000000     0.117870000000    -0.633413   
O52      O      0.137690000000     0.129530000000     0.797300000000    -0.363063   
O53      O      0.574370000000     0.546200000000     0.962480000000    -0.373077   
O54      O      0.178660000000     0.072670000000     0.911380000000    -0.38241    
O55      O      0.548850000000     0.522570000000     0.834960000000    -0.381543   
O56      O      0.128850000000     0.584320000000     0.948790000000    -0.363367   
O57      O      0.053900000000     0.573360000000     0.783510000000    -0.364232   
O58      O      0.556360000000     0.513880000000     0.913470000000    -0.387939   
O59      O      0.178910000000     0.120910000000     0.840900000000    -0.385194   
O60      O      0.539450000000     0.118170000000     0.796910000000    -0.375029   
O61      O      0.584730000000     0.117440000000     0.955570000000    -0.387591   
O62      O      0.137670000000     0.160220000000     0.881770000000    -0.369883   
O63      O      0.498990000000     0.568130000000     0.915470000000    -0.369445   
O64      O      0.526980000000     0.610020000000     0.948090000000    -0.390702   
O65      O      0.093090000000     0.159950000000     0.841190000000    -0.386448   
O66      O      0.492190000000     0.554960000000     0.852570000000    -0.358279   
O67      O      0.144780000000     0.131580000000     0.934870000000    -0.36419    
O68      O      0.073960000000     0.605220000000     0.873740000000    -0.644418   
O69      O      0.051760000000     0.260070000000     0.705680000000    -0.368912   
O70      O      0.524250000000     0.399620000000     0.152510000000    -0.362018   
O71      O      0.106210000000     0.348110000000     0.711180000000    -0.360879   
O72      O      0.472430000000     0.290100000000     0.130930000000    -0.367795   
O73      O      0.565820000000     0.385220000000     0.682780000000    -0.381515   
O74      O      0.502680000000     0.258830000000     0.657910000000    -0.379448   
O75      O      0.482420000000     0.362560000000     0.133240000000    -0.369456   
O76      O      0.096620000000     0.295260000000     0.719720000000    -0.363619   
O77      O      0.040560000000     0.237460000000     0.084140000000    -0.366034   
O78      O      0.116760000000     0.384730000000     0.101910000000    -0.368432   
O79      O      0.135060000000     0.273680000000     0.645590000000    -0.371622   
O80      O      0.509860000000     0.355180000000     0.069970000000    -0.367006   
O81      O      0.556290000000     0.388800000000     0.083090000000    -0.367589   
O82      O      0.091930000000     0.234370000000     0.639530000000    -0.370221   
O83      O      0.509710000000     0.281340000000     0.075810000000    -0.363771   
O84      O      0.149320000000     0.338640000000     0.648250000000    -0.371438   
O85      O      0.560450000000     0.320340000000     0.613560000000    -0.598024   
O86      O      0.387760000000     0.124940000000     0.657580000000    -0.367796   
O87      O      0.262170000000     0.530050000000     0.073410000000    -0.362552   
O88      O      0.253770000000     0.118620000000     0.657240000000    -0.382057   
O89      O      0.384640000000     0.529100000000     0.116640000000    -0.377058   
O90      O      0.227750000000     0.558070000000     0.586890000000    -0.36784    
O91      O      0.394100000000     0.570660000000     0.637000000000    -0.362843   
O92      O      0.313180000000     0.503270000000     0.084670000000    -0.380526   
O93      O      0.336200000000     0.134950000000     0.685110000000    -0.386899   
O94      O      0.398870000000     0.079500000000     0.066670000000    -0.388626   
O95      O      0.274930000000     0.102240000000     0.064530000000    -0.382128   
O96      O      0.324660000000     0.171010000000     0.624760000000    -0.367061   
O97      O      0.334630000000     0.537680000000     0.029670000000    -0.366302   
O98      O      0.290800000000     0.576210000000     0.023000000000    -0.389185   
O99      O      0.370560000000     0.149690000000     0.593070000000    -0.384642   
O100     O      0.386900000000     0.564370000000     0.057130000000    -0.372292   
O101     O      0.273330000000     0.155690000000     0.608550000000    -0.356222   
O102     O      0.313560000000     0.567350000000     0.609140000000    -0.613963   
O103     O      0.101300000000     0.611730000000     0.282740000000    -0.362997   
O104     O      0.592250000000     0.017470000000     0.432730000000    -0.364984   
O105     O      0.157290000000     0.601480000000     0.397490000000    -0.379228   
O106     O      0.586500000000     0.030850000000     0.291480000000    -0.376397   
O107     O      0.125230000000     0.047080000000     0.441680000000    -0.353472   
O108     O      0.096420000000     0.079820000000     0.269310000000    -0.366633   
O109     O      0.583190000000     0.994090000000     0.375730000000    -0.384345   
O110     O      0.145190000000     0.622280000000     0.322490000000    -0.377486   
O111     O      0.511210000000     0.615320000000     0.320000000000    -0.377322   
O112     O      0.603920000000     0.646530000000     0.457690000000    -0.388917   
O113     O      0.101530000000     0.671250000000     0.349760000000    -0.363705   
O114     O      0.528050000000     0.036510000000     0.372430000000    -0.370308   
O115     O      0.539750000000     0.070830000000     0.422120000000    -0.392769   
O116     O      0.055620000000     0.652990000000     0.316190000000    -0.380103   
O117     O      0.533480000000     0.051840000000     0.313770000000    -0.356481   
O118     O      0.109410000000     0.662400000000     0.408650000000    -0.367442   
O119     O      0.101110000000     0.073530000000     0.359850000000    -0.617546   
O120     O      0.023670000000     0.745390000000     0.161500000000    -0.374346   
O121     O      0.520000000000     0.901920000000     0.606100000000    -0.368608   
O122     O      0.073810000000     0.850680000000     0.187290000000    -0.369676   
O123     O      0.466810000000     0.789170000000     0.601180000000    -0.375557   
O124     O      0.573350000000     0.897670000000     0.141340000000    -0.369888   
O125     O      0.500270000000     0.756380000000     0.148680000000    -0.36904    
O126     O      0.477940000000     0.861120000000     0.601140000000    -0.379251   
O127     O      0.047740000000     0.790600000000     0.192730000000    -0.38549    
O128     O      0.018610000000     0.745120000000     0.568540000000    -0.372303   
O129     O      0.106770000000     0.888310000000     0.580850000000    -0.368459   
O130     O      0.113880000000     0.768840000000     0.150710000000    -0.368193   
O131     O      0.507610000000     0.846240000000     0.533760000000    -0.358908   
O132     O      0.556090000000     0.877800000000     0.543610000000    -0.375163   
O133     O      0.079370000000     0.725540000000     0.129600000000    -0.378191   
O134     O      0.514720000000     0.784870000000     0.539790000000    -0.362853   
O135     O      0.126520000000     0.830880000000     0.146060000000    -0.365691   
O136     O      0.562770000000     0.812160000000     0.099060000000    -0.583384   
O137     O      0.364170000000     0.621510000000     0.181930000000    -0.367873   
O138     O      0.255560000000     0.027440000000     0.593620000000    -0.366337   
O139     O      0.234590000000     0.597340000000     0.153010000000    -0.377627   
O140     O      0.379220000000     0.015130000000     0.638760000000    -0.381665   
O141     O      0.243450000000     0.065580000000     0.121030000000    -0.369818   
O142     O      0.417810000000     0.064010000000     0.139630000000    -0.365634   
O143     O      0.297420000000     0.999320000000     0.625640000000    -0.392416   
O144     O      0.310320000000     0.608350000000     0.201450000000    -0.383527   
O145     O      0.389610000000     0.610740000000     0.577160000000    -0.383961   
O146     O      0.262420000000     0.617130000000     0.552650000000    -0.385053   
O147     O      0.296840000000     0.663340000000     0.161600000000    -0.36192    
O148     O      0.323340000000     0.005840000000     0.556210000000    -0.36374    
O149     O      0.289230000000     0.049790000000     0.535310000000    -0.38896    
O150     O      0.345850000000     0.665020000000     0.127690000000    -0.383896   
O151     O      0.377660000000     0.021210000000     0.569920000000    -0.368008   
O152     O      0.255100000000     0.649090000000     0.125440000000    -0.355837   
O153     O      0.331820000000     0.066490000000     0.127780000000    -0.626255   
O154     O      0.099840000000     0.606690000000     0.780110000000    -0.364761   
O155     O      0.564020000000     0.029050000000     0.932050000000    -0.370307   
O156     O      0.160060000000     0.590990000000     0.896110000000    -0.383865   
O157     O      0.578340000000     0.036480000000     0.790260000000    -0.378001   
O158     O      0.136950000000     0.047050000000     0.945850000000    -0.353908   
O159     O      0.101740000000     0.083310000000     0.774110000000    -0.368996   
O160     O      0.566540000000     0.003780000000     0.875200000000    -0.390677   
O161     O      0.144080000000     0.594420000000     0.818910000000    -0.393586   
O162     O      0.501810000000     0.602700000000     0.816440000000    -0.375951   
O163     O      0.599030000000     0.635590000000     0.961150000000    -0.381355   
O164     O      0.127790000000     0.664880000000     0.837920000000    -0.368568   
O165     O      0.514300000000     0.052600000000     0.864360000000    -0.372006   
O166     O      0.525510000000     0.084830000000     0.915800000000    -0.392661   
O167     O      0.074290000000     0.666510000000     0.812920000000    -0.387882   
O168     O      0.525800000000     0.060880000000     0.806120000000    -0.355682   
O169     O      0.139530000000     0.657630000000     0.900270000000    -0.36531    
O170     O      0.110070000000     0.073720000000     0.864640000000    -0.638786   
O171     O      0.034590000000     0.768400000000     0.671000000000    -0.354415   
O172     O      0.522890000000     0.899600000000     0.102780000000    -0.370455   
O173     O      0.096260000000     0.859290000000     0.667520000000    -0.362695   
O174     O      0.470130000000     0.793380000000     0.111910000000    -0.375186   
O175     O      0.566470000000     0.900740000000     0.645900000000    -0.363571   
O176     O      0.496800000000     0.745020000000     0.628020000000    -0.372053   
O177     O      0.480750000000     0.858750000000     0.100150000000    -0.373523   
O178     O      0.077870000000     0.806130000000     0.683470000000    -0.366617   
O179     O      0.048970000000     0.745010000000     0.055070000000    -0.381511   
O180     O      0.114120000000     0.873890000000     0.104710000000    -0.373205   
O181     O      0.117750000000     0.774240000000     0.623510000000    -0.370557   
O182     O      0.508970000000     0.838350000000     0.032970000000    -0.362656   
O183     O      0.555140000000     0.873910000000     0.039620000000    -0.371082   
O184     O      0.074050000000     0.736380000000     0.613100000000    -0.375481   
O185     O      0.513680000000     0.776400000000     0.046540000000    -0.365743   
O186     O      0.131480000000     0.838530000000     0.601980000000    -0.372836   
O187     O      0.558420000000     0.814800000000     0.602010000000    -0.591838   
O188     O      0.359540000000     0.609470000000     0.673420000000    -0.367726   
O189     O      0.269840000000     0.009500000000     0.103740000000    -0.368785   
O190     O      0.231530000000     0.586080000000     0.642110000000    -0.375043   
O191     O      0.394630000000     0.009420000000     0.139160000000    -0.379754   
O192     O      0.234900000000     0.083170000000     0.610950000000    -0.369227   
O193     O      0.407670000000     0.067070000000     0.635910000000    -0.368549   
O194     O      0.318390000000     0.982850000000     0.124020000000    -0.386525   
O195     O      0.305040000000     0.596640000000     0.690750000000    -0.380471   
O196     O      0.391700000000     0.617940000000     0.084080000000    -0.387199   
O197     O      0.264500000000     0.632430000000     0.066120000000    -0.390029   
O198     O      0.293020000000     0.653410000000     0.648340000000    -0.359773   
O199     O      0.337690000000     0.000110000000     0.056130000000    -0.362197   
O200     O      0.297650000000     0.040940000000     0.041880000000    -0.384707   
O201     O      0.342290000000     0.654140000000     0.615020000000    -0.385058   
O202     O      0.391500000000     0.020590000000     0.069300000000    -0.370398   
O203     O      0.252830000000     0.637660000000     0.610500000000    -0.35571    
O204     O      0.322320000000     0.078040000000     0.619610000000    -0.650128   
O205     O      0.637360000000     0.132500000000     0.298570000000    -0.361962   
O206     O      0.082670000000     0.538110000000     0.450740000000    -0.363196   
O207     O      0.676900000000     0.076000000000     0.413330000000    -0.382526   
O208     O      0.054940000000     0.513530000000     0.317870000000    -0.376615   
O209     O      0.626180000000     0.581740000000     0.456220000000    -0.366023   
O210     O      0.557250000000     0.577420000000     0.289300000000    -0.364386   
O211     O      0.068370000000     0.502280000000     0.403090000000    -0.381539   
O212     O      0.678110000000     0.123670000000     0.342650000000    -0.384617   
O213     O      0.039740000000     0.110450000000     0.294900000000    -0.368576   
O214     O      0.080600000000     0.107490000000     0.450140000000    -0.377997   
O215     O      0.636790000000     0.163630000000     0.381990000000    -0.368268   
O216     O      0.007830000000     0.543190000000     0.402720000000    -0.369758   
O217     O      0.026270000000     0.589670000000     0.436280000000    -0.388783   
O218     O      0.591980000000     0.162880000000     0.341710000000    -0.386573   
O219     O      0.001920000000     0.543250000000     0.342000000000    -0.358277   
O220     O      0.642320000000     0.135670000000     0.435770000000    -0.364702   
O221     O      0.576040000000     0.604990000000     0.380210000000    -0.65455    
O222     O      0.546450000000     0.263510000000     0.210910000000    -0.372947   
O223     O      0.033070000000     0.403840000000     0.643280000000    -0.359837   
O224     O      0.604300000000     0.350550000000     0.214110000000    -0.359008   
O225     O      0.975740000000     0.295360000000     0.632110000000    -0.367844   
O226     O      0.072980000000     0.380760000000     0.172580000000    -0.375719   
O227     O      0.004470000000     0.257650000000     0.151160000000    -0.375988   
O228     O      0.989070000000     0.366460000000     0.631970000000    -0.371115   
O229     O      0.591860000000     0.298220000000     0.224230000000    -0.365614   
O230     O      0.538660000000     0.241900000000     0.591350000000    -0.366102   
O231     O      0.600700000000     0.395480000000     0.607300000000    -0.365217   
O232     O      0.631490000000     0.275190000000     0.150030000000    -0.370927   
O233     O      0.016860000000     0.354840000000     0.565520000000    -0.367049   
O234     O      0.064780000000     0.386600000000     0.577490000000    -0.367184   
O235     O      0.589030000000     0.234990000000     0.145430000000    -0.366738   
O236     O      0.008380000000     0.283940000000     0.574410000000    -0.362292   
O237     O      0.643850000000     0.340430000000     0.149950000000    -0.371307   
O238     O      0.068120000000     0.313310000000     0.106300000000    -0.590535   
O239     O      0.886580000000     0.123520000000     0.154620000000    -0.37034    
O240     O      0.749810000000     0.536880000000     0.578510000000    -0.368794   
O241     O      0.752150000000     0.120980000000     0.157510000000    -0.382443   
O242     O      0.873040000000     0.527160000000     0.627260000000    -0.383019   
O243     O      0.726730000000     0.566080000000     0.090640000000    -0.365606   
O244     O      0.895400000000     0.570950000000     0.138030000000    -0.362155   
O245     O      0.793000000000     0.508860000000     0.608720000000    -0.397772   
O246     O      0.835860000000     0.134730000000     0.183480000000    -0.388892   
O247     O      0.898790000000     0.085260000000     0.568950000000    -0.390058   
O248     O      0.776070000000     0.117300000000     0.565340000000    -0.389183   
O249     O      0.824060000000     0.172230000000     0.124170000000    -0.368843   
O250     O      0.821380000000     0.522690000000     0.543100000000    -0.372349   
O251     O      0.787090000000     0.566950000000     0.523130000000    -0.399241   
O252     O      0.868590000000     0.150240000000     0.090710000000    -0.385731   
O253     O      0.875370000000     0.550480000000     0.563880000000    -0.377071   
O254     O      0.771100000000     0.158120000000     0.109030000000    -0.357991   
O255     O      0.813660000000     0.570550000000     0.111410000000    -0.624256   
O256     O      0.633820000000     0.135340000000     0.796460000000    -0.361828   
O257     O      0.081420000000     0.554710000000     0.956230000000    -0.372037   
O258     O      0.662860000000     0.075530000000     0.911760000000    -0.388026   
O259     O      0.050010000000     0.529550000000     0.825960000000    -0.382377   
O260     O      0.623050000000     0.572900000000     0.950140000000    -0.364686   
O261     O      0.553090000000     0.565200000000     0.791330000000    -0.368358   
O262     O      0.067900000000     0.521030000000     0.906540000000    -0.39571    
O263     O      0.671460000000     0.124690000000     0.843270000000    -0.385977   
O264     O      0.044880000000     0.107530000000     0.805350000000    -0.374842   
O265     O      0.094500000000     0.107690000000     0.953830000000    -0.388582   
O266     O      0.631530000000     0.167540000000     0.880820000000    -0.373989   
O267     O      0.007360000000     0.569310000000     0.910580000000    -0.367295   
O268     O      0.032040000000     0.613820000000     0.942590000000    -0.392682   
O269     O      0.592010000000     0.170720000000     0.834560000000    -0.384776   
O270     O      0.999000000000     0.564290000000     0.849680000000    -0.358051   
O271     O      0.636120000000     0.138010000000     0.935490000000    -0.366557   
O272     O      0.564080000000     0.601430000000     0.881370000000    -0.622013   
O273     O      0.559080000000     0.263590000000     0.692290000000    -0.377726   
O274     O      0.026500000000     0.393290000000     0.136900000000    -0.368419   
O275     O      0.613320000000     0.351650000000     0.689670000000    -0.367975   
O276     O      0.976080000000     0.290120000000     0.108570000000    -0.367743   
O277     O      0.070480000000     0.387910000000     0.685290000000    -0.373007   
O278     O      0.004300000000     0.258300000000     0.670200000000    -0.368921   
O279     O      0.985650000000     0.358990000000     0.110680000000    -0.369965   
O280     O      0.607050000000     0.296850000000     0.696870000000    -0.361696   
O281     O      0.540220000000     0.240280000000     0.106900000000    -0.362077   
O282     O      0.615300000000     0.385130000000     0.122310000000    -0.369569   
O283     O      0.633790000000     0.277020000000     0.629040000000    -0.373837   
O284     O      0.017200000000     0.355290000000     0.046950000000    -0.371055   
O285     O      0.060570000000     0.390120000000     0.066980000000    -0.367843   
O286     O      0.590200000000     0.237720000000     0.627770000000    -0.362433   
O287     O      0.011410000000     0.279050000000     0.052280000000    -0.367215   
O288     O      0.632080000000     0.345680000000     0.605110000000    -0.381628   
O289     O      0.068660000000     0.315470000000     0.626220000000    -0.58405    
O290     O      0.892340000000     0.123610000000     0.666830000000    -0.364232   
O291     O      0.760240000000     0.521640000000     0.068120000000    -0.367291   
O292     O      0.758080000000     0.116830000000     0.663410000000    -0.380204   
O293     O      0.883350000000     0.520880000000     0.106670000000    -0.374117   
O294     O      0.722070000000     0.584210000000     0.589580000000    -0.366639   
O295     O      0.892480000000     0.580980000000     0.644770000000    -0.363218   
O296     O      0.812270000000     0.495240000000     0.072820000000    -0.375866   
O297     O      0.840270000000     0.128870000000     0.694670000000    -0.38577    
O298     O      0.889000000000     0.076390000000     0.061380000000    -0.387927   
O299     O      0.766190000000     0.123600000000     0.058160000000    -0.390718   
O300     O      0.827680000000     0.171530000000     0.637350000000    -0.368891   
O301     O      0.831980000000     0.532100000000     0.020430000000    -0.364987   
O302     O      0.786610000000     0.569080000000     0.016530000000    -0.386764   
O303     O      0.873710000000     0.154590000000     0.603030000000    -0.385512   
O304     O      0.885360000000     0.558420000000     0.048830000000    -0.370273   
O305     O      0.777830000000     0.153330000000     0.615220000000    -0.356643   
O306     O      0.809690000000     0.587370000000     0.612370000000    -0.678912   
O307     O      0.602540000000     0.611870000000     0.287590000000    -0.363975   
O308     O      0.084810000000     0.014110000000     0.424230000000    -0.364174   
O309     O      0.658770000000     0.586120000000     0.404240000000    -0.387846   
O310     O      0.073430000000     0.027810000000     0.287180000000    -0.373005   
O311     O      0.634790000000     0.050260000000     0.447140000000    -0.356986   
O312     O      0.602270000000     0.086080000000     0.275030000000    -0.368423   
O313     O      0.069940000000     0.993440000000     0.367570000000    -0.386099   
O314     O      0.646650000000     0.597580000000     0.325890000000    -0.392059   
O315     O      0.010400000000     0.594870000000     0.312130000000    -0.375418   
O316     O      0.074080000000     0.633220000000     0.447850000000    -0.382955   
O317     O      0.630900000000     0.665810000000     0.348850000000    -0.36886    
O318     O      0.015220000000     0.045050000000     0.366180000000    -0.372773   
O319     O      0.031360000000     0.074400000000     0.417870000000    -0.388874   
O320     O      0.577750000000     0.669610000000     0.323110000000    -0.387929   
O321     O      0.022630000000     0.054860000000     0.307800000000    -0.354179   
O322     O      0.641820000000     0.655930000000     0.410880000000    -0.367224   
O323     O      0.609000000000     0.076860000000     0.365700000000    -0.63868    
O324     O      0.542580000000     0.770730000000     0.184920000000    -0.364848   
O325     O      0.018400000000     0.909370000000     0.598870000000    -0.36872    
O326     O      0.605830000000     0.859880000000     0.174670000000    -0.365268   
O327     O      0.959370000000     0.805580000000     0.609620000000    -0.369301   
O328     O      0.063690000000     0.893350000000     0.144970000000    -0.359964   
O329     O      0.995510000000     0.734550000000     0.102160000000    -0.37485    
O330     O      0.973080000000     0.872250000000     0.596660000000    -0.375192   
O331     O      0.587840000000     0.806640000000     0.195180000000    -0.365238   
O332     O      0.550290000000     0.746680000000     0.568610000000    -0.379713   
O333     O      0.612940000000     0.883190000000     0.599550000000    -0.369502   
O334     O      0.628830000000     0.771690000000     0.142580000000    -0.371242   
O335     O      0.998350000000     0.850180000000     0.527310000000    -0.364124   
O336     O      0.047950000000     0.880690000000     0.533040000000    -0.375409   
O337     O      0.585280000000     0.732480000000     0.141980000000    -0.368982   
O338     O      0.985880000000     0.787990000000     0.543350000000    -0.363303   
O339     O      0.640820000000     0.836510000000     0.110650000000    -0.375139   
O340     O      0.055840000000     0.809110000000     0.098950000000    -0.605932   
O341     O      0.863080000000     0.609020000000     0.175770000000    -0.367182   
O342     O      0.765760000000     0.023590000000     0.603140000000    -0.369195   
O343     O      0.733180000000     0.589960000000     0.147770000000    -0.375944   
O344     O      0.891220000000     0.019640000000     0.642810000000    -0.380542   
O345     O      0.731170000000     0.087020000000     0.110970000000    -0.368645   
O346     O      0.905380000000     0.065810000000     0.129630000000    -0.367811   
O347     O      0.811260000000     0.997390000000     0.630970000000    -0.392726   
O348     O      0.809040000000     0.596510000000     0.195000000000    -0.382178   
O349     O      0.888340000000     0.606530000000     0.580610000000    -0.388403   
O350     O      0.762820000000     0.637700000000     0.562960000000    -0.396632   
O351     O      0.797720000000     0.654180000000     0.157040000000    -0.361354   
O352     O      0.833770000000     0.007480000000     0.561190000000    -0.365036   
O353     O      0.796570000000     0.049550000000     0.542320000000    -0.389801   
O354     O      0.843460000000     0.655230000000     0.118430000000    -0.389679   
O355     O      0.888430000000     0.026890000000     0.574480000000    -0.371266   
O356     O      0.754990000000     0.641300000000     0.119100000000    -0.359199   
O357     O      0.819020000000     0.080360000000     0.116510000000    -0.660528   
O358     O      0.592340000000     0.608340000000     0.786640000000    -0.364902   
O359     O      0.096280000000     0.014050000000     0.931350000000    -0.362476   
O360     O      0.652230000000     0.587970000000     0.898130000000    -0.378964   
O361     O      0.085410000000     0.028240000000     0.790500000000    -0.377205   
O362     O      0.617950000000     0.054620000000     0.945100000000    -0.36725    
O363     O      0.597770000000     0.090160000000     0.772650000000    -0.367878   
O364     O      0.086130000000     0.990940000000     0.874440000000    -0.382192   
O365     O      0.637570000000     0.600070000000     0.825200000000    -0.386846   
O366     O      0.008870000000     0.612550000000     0.814290000000    -0.376649   
O367     O      0.103810000000     0.647680000000     0.948900000000    -0.384039   
O368     O      0.611110000000     0.666340000000     0.850200000000    -0.368198   
O369     O      0.030090000000     0.030230000000     0.873680000000    -0.370381   
O370     O      0.041580000000     0.065380000000     0.922770000000    -0.392512   
O371     O      0.559530000000     0.661470000000     0.821380000000    -0.383224   
O372     O      0.033190000000     0.049880000000     0.815020000000    -0.358211   
O373     O      0.630640000000     0.653050000000     0.911690000000    -0.363203   
O374     O      0.596660000000     0.085050000000     0.864430000000    -0.650982   
O375     O      0.529880000000     0.760570000000     0.675930000000    -0.368434   
O376     O      0.022310000000     0.897790000000     0.102850000000    -0.364971   
O377     O      0.586130000000     0.860160000000     0.686490000000    -0.368096   
O378     O      0.965670000000     0.784240000000     0.090090000000    -0.38167    
O379     O      0.066690000000     0.900990000000     0.636380000000    -0.3688     
O380     O      0.990810000000     0.766680000000     0.642690000000    -0.361437   
O381     O      0.978700000000     0.858760000000     0.097590000000    -0.381941   
O382     O      0.563860000000     0.803210000000     0.699460000000    -0.376919   
O383     O      0.549260000000     0.741080000000     0.079090000000    -0.377065   
O384     O      0.613580000000     0.883710000000     0.086670000000    -0.369295   
O385     O      0.620620000000     0.776190000000     0.651490000000    -0.366594   
O386     O      0.008190000000     0.846210000000     0.030230000000    -0.358506   
O387     O      0.059070000000     0.873120000000     0.041320000000    -0.377519   
O388     O      0.582630000000     0.733080000000     0.638570000000    -0.37486    
O389     O      0.013950000000     0.786370000000     0.030600000000    -0.360602   
O390     O      0.633160000000     0.837210000000     0.632750000000    -0.370563   
O391     O      0.051190000000     0.818940000000     0.588840000000    -0.586884   
O392     O      0.860420000000     0.622020000000     0.679200000000    -0.371857   
O393     O      0.749900000000     0.031110000000     0.096270000000    -0.36469    
O394     O      0.728970000000     0.601330000000     0.649520000000    -0.384      
O395     O      0.874910000000     0.015340000000     0.136270000000    -0.384505   
O396     O      0.741190000000     0.079380000000     0.618000000000    -0.370253   
O397     O      0.915810000000     0.073630000000     0.640800000000    -0.36383    
O398     O      0.791090000000     0.004880000000     0.130950000000    -0.394722   
O399     O      0.806750000000     0.607500000000     0.698750000000    -0.391369   
O400     O      0.890560000000     0.610550000000     0.078640000000    -0.385765   
O401     O      0.762650000000     0.623870000000     0.059730000000    -0.389427   
O402     O      0.794370000000     0.664410000000     0.662020000000    -0.366797   
O403     O      0.814510000000     0.003960000000     0.059590000000    -0.363745   
O404     O      0.782120000000     0.048160000000     0.036140000000    -0.389705   
O405     O      0.842620000000     0.666510000000     0.626550000000    -0.385871   
O406     O      0.868980000000     0.020650000000     0.067130000000    -0.368564   
O407     O      0.753130000000     0.653320000000     0.622710000000    -0.361557   
O408     O      0.829620000000     0.078160000000     0.626470000000    -0.646985   


