data_structure

_audit_creation_method RASPA-1.0
_audit_creation_date 2023-6-4
_audit_author_name 'Poobodin Mano'

_cell_length_a    26.2976
_cell_length_b    26.4361
_cell_length_c    25.8372
_cell_angle_alpha 87.1442
_cell_angle_beta  93.8214
_cell_angle_gamma 120.434
_cell_volume      15450.1

_symmetry_cell_setting          triclinic
_symmetry_space_group_name_Hall 'P 1'
_symmetry_space_group_name_H-M  'P 1'
_symmetry_Int_Tables_number     1

_symmetry_equiv_pos_as_xyz 'x,y,z'

loop_
_atom_site_label
_atom_site_type_symbol
_atom_site_fract_x
_atom_site_fract_y
_atom_site_fract_z
_atom_site_charge
C1       C      0.197190000000     0.315180000000     0.081060000000     0.483734   
C2       C      0.061940000000     0.107160000000     0.102850000000     0.459644   
C3       C      0.223580000000     0.161030000000     0.050960000000     0.470223   
C4       C      0.059930000000     0.178940000000     0.215220000000     0.455644   
C5       C      0.199020000000     0.217090000000     0.275330000000     0.447326   
C6       C      0.273570000000     0.160890000000     0.182180000000     0.492305   
C7       C      0.289190000000     0.334910000000     0.200810000000     0.511434   
C8       C      0.097190000000     0.024750000000     0.194730000000     0.379261   
C9       C      0.145080000000     0.033520000000     0.537060000000     0.471871   
C10      C      0.197230000000     0.155140000000     0.741120000000     0.470855   
C11      C      0.052360000000     0.003340000000     0.617030000000     0.469439   
C12      C      0.284290000000     0.195750000000     0.655900000000     0.467645   
C13      C      0.335750000000     0.092650000000     0.661240000000     0.467214   
C14      C      0.084750000000     0.923480000000     0.719550000000     0.469409   
C15      C      0.245330000000     0.988270000000     0.594520000000     0.467716   
C16      C      0.180310000000     0.017590000000     0.792460000000     0.466471   
C17      C      0.035190000000     0.521410000000     0.112180000000     0.490058   
C18      C      0.190900000000     0.783960000000     0.167250000000     0.385954   
C19      C      0.045450000000     0.634440000000     0.187140000000     0.459829   
C20      C      0.227730000000     0.695360000000     0.059620000000     0.465697   
C21      C      0.276930000000     0.625520000000     0.156410000000     0.458431   
C22      C      0.139700000000     0.636360000000     0.296430000000     0.465262   
C23      C      0.144250000000     0.493160000000     0.178590000000     0.498671   
C24      C      0.293950000000     0.759820000000     0.231060000000     0.386028   
C25      C      0.113980000000     0.468540000000     0.590490000000     0.499041   
C26      C      0.172010000000     0.666380000000     0.605470000000     0.462103   
C27      C      0.072100000000     0.599130000000     0.689510000000     0.485105   
C28      C      0.286030000000     0.604990000000     0.557370000000     0.40198    
C29      C      0.330420000000     0.607390000000     0.692970000000     0.498557   
C30      C      0.143260000000     0.553610000000     0.790680000000     0.462748   
C31      C      0.139260000000     0.435610000000     0.723710000000     0.515565   
C32      C      0.299670000000     0.720120000000     0.689810000000     0.451221   
C33      C      0.466820000000     0.086110000000     0.122060000000     0.495889   
C34      C      0.568360000000     0.024040000000     0.170960000000     0.444608   
C35      C      0.583110000000     0.121060000000     0.003090000000     0.383842   
C36      C      0.548900000000     0.088700000000     0.281070000000     0.51795    
C37      C      0.661580000000     0.241620000000     0.263320000000     0.483798   
C38      C      0.690660000000     0.242400000000     0.081990000000     0.451721   
C39      C      0.540440000000     0.239820000000     0.122890000000     0.473243   
C40      C      0.712060000000     0.127280000000     0.147100000000     0.456361   
C41      C      0.589550000000     0.141960000000     0.536320000000     0.380368   
C42      C      0.684890000000     0.972380000000     0.551370000000     0.477743   
C43      C      0.758990000000     0.182060000000     0.494460000000     0.464325   
C44      C      0.568750000000     0.983800000000     0.569190000000     0.462296   
C45      C      0.602560000000     0.056830000000     0.694370000000     0.461583   
C46      C      0.818290000000     0.193990000000     0.625150000000     0.465213   
C47      C      0.685540000000     0.223360000000     0.637700000000     0.382012   
C48      C      0.786410000000     0.055300000000     0.656440000000     0.476848   
C49      C      0.515380000000     0.563460000000     0.146040000000     0.491592   
C50      C      0.677560000000     0.836960000000     0.126680000000     0.381514   
C51      C      0.541280000000     0.695630000000     0.188350000000     0.45963    
C52      C      0.676270000000     0.710290000000     0.034050000000     0.467822   
C53      C      0.750480000000     0.663440000000     0.131460000000     0.463024   
C54      C      0.666650000000     0.737990000000     0.281350000000     0.469468   
C55      C      0.645210000000     0.561110000000     0.198280000000     0.488279   
C56      C      0.794400000000     0.823380000000     0.175820000000     0.380781   
C57      C      0.563380000000     0.463200000000     0.617210000000     0.515205   
C58      C      0.754390000000     0.735760000000     0.664750000000     0.458664   
C59      C      0.613160000000     0.652670000000     0.677660000000     0.476634   
C60      C      0.681800000000     0.578170000000     0.535190000000     0.472154   
C61      C      0.807660000000     0.582430000000     0.606950000000     0.500631   
C62      C      0.587280000000     0.548310000000     0.774200000000     0.39534    
C63      C      0.655080000000     0.466740000000     0.727720000000     0.507179   
C64      C      0.811130000000     0.645640000000     0.719300000000     0.44684    
C65      C      0.632550000000     0.635350000000     0.930670000000    -0.0767577  
C66      C      0.592920000000     0.607210000000     0.882130000000    -0.0795807  
C67      C      0.589250000000     0.549240000000     0.869910000000     0.00780124 
C68      C      0.634040000000     0.692100000000     0.943700000000     0.0115743  
C69      C      0.663650000000     0.689660000000     0.397440000000    -0.0750481  
C70      C      0.685790000000     0.655250000000     0.431970000000    -0.0811687  
C71      C      0.634970000000     0.605220000000     0.460980000000     0.0162301  
C72      C      0.713780000000     0.739760000000     0.367770000000     0.0115476  
C73      C      0.715710000000     0.866630000000     0.562670000000    -0.0782213  
C74      C      0.713610000000     0.823300000000     0.605460000000    -0.0827927  
C75      C      0.771110000000     0.821440000000     0.608920000000     0.0176341  
C76      C      0.657980000000     0.867930000000     0.556190000000     0.012293   
C77      C      0.731180000000     0.355150000000     0.719420000000    -0.0814027  
C78      C      0.676000000000     0.359480000000     0.727480000000    -0.0728977  
C79      C      0.687210000000     0.401630000000     0.771820000000     0.0149267  
C80      C      0.726420000000     0.323920000000     0.669140000000     0.00896202 
C81      C      0.610640000000     0.070300000000     0.885820000000    -0.0770109  
C82      C      0.575990000000     0.064600000000     0.833970000000    -0.0814859  
C83      C      0.614440000000     0.074000000000     0.788250000000     0.0107771  
C84      C      0.572420000000     0.055060000000     0.932940000000     0.00551274 
C85      C      0.811660000000     0.300290000000     0.391270000000    -0.0779279  
C86      C      0.749500000000     0.281040000000     0.367740000000    -0.0777902  
C87      C      0.751590000000     0.310820000000     0.314850000000     0.011774   
C88      C      0.810020000000     0.277110000000     0.447170000000     0.00918894 
C89      C      0.623930000000     0.944420000000     0.195510000000    -0.0760036  
C90      C      0.615030000000     0.910670000000     0.145730000000    -0.0713647  
C91      C      0.674710000000     0.928830000000     0.122810000000     0.0123413  
C92      C      0.566020000000     0.937000000000     0.213660000000     0.013197   
C93      C      0.597250000000     0.425040000000     0.178760000000    -0.0791527  
C94      C      0.591950000000     0.376970000000     0.144330000000    -0.0822614  
C95      C      0.529140000000     0.324130000000     0.143080000000     0.0187884  
C96      C      0.659690000000     0.478460000000     0.179180000000     0.0152572  
C97      C      0.006300000000     0.339390000000     0.579690000000    -0.0797552  
C98      C      0.940970000000     0.305720000000     0.591910000000    -0.080929   
C99      C      0.927330000000     0.253780000000     0.629280000000     0.0153664  
C100     C      0.022890000000     0.394590000000     0.545740000000     0.0101511  
C101     C      0.415160000000     0.823210000000     0.636820000000    -0.081357   
C102     C      0.444630000000     0.878130000000     0.602030000000    -0.0791809  
C103     C      0.491690000000     0.879050000000     0.569580000000     0.0148     
C104     C      0.368000000000     0.824290000000     0.667630000000     0.0176053  
C105     C      0.996630000000     0.631200000000     0.599200000000    -0.0781152  
C106     C      0.949750000000     0.608720000000     0.553820000000    -0.081177   
C107     C      0.898890000000     0.620910000000     0.559050000000     0.0139849  
C108     C      0.979950000000     0.589080000000     0.646280000000     0.0141043  
C109     C      0.466150000000     0.696180000000     0.661950000000    -0.0779613  
C110     C      0.480460000000     0.646730000000     0.657330000000    -0.0736648  
C111     C      0.536920000000     0.666800000000     0.627920000000     0.00935799 
C112     C      0.432710000000     0.690080000000     0.710610000000     0.0163975  
C113     C      0.215410000000     0.645970000000     0.947440000000    -0.0725698  
C114     C      0.173610000000     0.616910000000     0.900180000000    -0.0819946  
C115     C      0.176820000000     0.563760000000     0.883510000000     0.0156777  
C116     C      0.213070000000     0.699510000000     0.964440000000     0.00850039 
C117     C      0.223620000000     0.634990000000     0.400500000000    -0.0807311  
C118     C      0.233680000000     0.599460000000     0.444560000000    -0.0762015  
C119     C      0.298710000000     0.627510000000     0.464040000000     0.00733628 
C120     C      0.157450000000     0.607130000000     0.385710000000     0.0156027  
C121     C      0.816170000000     0.385910000000     0.114270000000    -0.0789778  
C122     C      0.872190000000     0.417510000000     0.082650000000    -0.0816063  
C123     C      0.928020000000     0.451850000000     0.118260000000     0.0107362  
C124     C      0.758900000000     0.350800000000     0.080390000000     0.00915823 
C125     C      0.455290000000     0.949920000000     0.282630000000    -0.0823827  
C126     C      0.394030000000     0.894820000000     0.284520000000    -0.077132   
C127     C      0.392610000000     0.842790000000     0.259020000000     0.00631798 
C128     C      0.460050000000     0.000510000000     0.313310000000     0.0156129  
C129     C      0.909070000000     0.634030000000     0.220590000000    -0.0814451  
C130     C      0.869190000000     0.627890000000     0.172280000000    -0.0782402  
C131     C      0.835060000000     0.660420000000     0.177480000000     0.00892469 
C132     C      0.944820000000     0.603310000000     0.214350000000     0.0120014  
C133     C      0.376780000000     0.638540000000     0.081540000000    -0.0783309  
C134     C      0.444090000000     0.670720000000     0.093290000000    -0.0752377  
C135     C      0.465470000000     0.711690000000     0.140250000000     0.0129248  
C136     C      0.340610000000     0.591500000000     0.122530000000     0.015781   
C137     C      0.959570000000     0.741810000000     0.744380000000    -0.0808396  
C138     C      0.022030000000     0.773660000000     0.723400000000    -0.0750502  
C139     C      0.065890000000     0.826800000000     0.756090000000     0.00758235 
C140     C      0.919350000000     0.683200000000     0.717350000000     0.0127073  
C141     C      0.406320000000     0.354700000000     0.598790000000    -0.0771859  
C142     C      0.348110000000     0.351360000000     0.610640000000    -0.0814649  
C143     C      0.296980000000     0.287800000000     0.614710000000     0.0128838  
C144     C      0.456450000000     0.418410000000     0.593070000000     0.0101481  
C145     C      0.930210000000     0.006310000000     0.628340000000    -0.0771707  
C146     C      0.901620000000     0.043630000000     0.635960000000    -0.0822109  
C147     C      0.847940000000     0.008900000000     0.669480000000     0.0166476  
C148     C      0.978910000000     0.033170000000     0.589280000000     0.0075343  
C149     C      0.438230000000     0.114800000000     0.579500000000    -0.0801984  
C150     C      0.482570000000     0.160700000000     0.541910000000    -0.0696626  
C151     C      0.496090000000     0.132190000000     0.498000000000     0.0115715  
C152     C      0.436930000000     0.143520000000     0.629040000000     0.0153574  
C153     C      0.211640000000     0.857340000000     0.583190000000    -0.0768577  
C154     C      0.212040000000     0.799680000000     0.591310000000    -0.0818529  
C155     C      0.149720000000     0.745970000000     0.584420000000     0.0161497  
C156     C      0.272220000000     0.910630000000     0.597720000000     0.013226   
C157     C      0.152470000000     0.316530000000     0.743650000000    -0.0777782  
C158     C      0.187550000000     0.288310000000     0.766920000000    -0.084288   
C159     C      0.174680000000     0.235070000000     0.735530000000     0.0131663  
C160     C      0.161070000000     0.367020000000     0.776640000000     0.0115551  
C161     C      0.150970000000     0.998000000000     0.930160000000    -0.0777192  
C162     C      0.183000000000     0.064850000000     0.937300000000    -0.0783875  
C163     C      0.207070000000     0.081070000000     0.993610000000     0.00864659 
C164     C      0.126650000000     0.980150000000     0.874200000000     0.0107165  
C165     C      0.174840000000     0.109470000000     0.428340000000    -0.075731   
C166     C      0.173300000000     0.155970000000     0.391440000000    -0.0817672  
C167     C      0.228760000000     0.188500000000     0.359860000000     0.0126647  
C168     C      0.120160000000     0.079660000000     0.461120000000     0.0104592  
C169     C      0.896880000000     0.951470000000     0.147370000000    -0.0751098  
C170     C      0.947680000000     0.987220000000     0.111440000000    -0.079504   
C171     C      0.953860000000     0.046970000000     0.096250000000     0.014066   
C172     C      0.899520000000     0.898240000000     0.170530000000     0.0109101  
C173     C      0.446410000000     0.440550000000     0.200220000000    -0.0730096  
C174     C      0.433520000000     0.421180000000     0.257410000000    -0.0763553  
C175     C      0.374240000000     0.364830000000     0.264030000000     0.0119055  
C176     C      0.423740000000     0.482270000000     0.180970000000     0.0160498  
C177     C      0.864040000000     0.156020000000     0.168290000000    -0.0797335  
C178     C      0.906720000000     0.155870000000     0.211680000000    -0.0824066  
C179     C      0.968920000000     0.180960000000     0.192180000000     0.0113772  
C180     C      0.804060000000     0.138190000000     0.189400000000     0.0104647  
C181     C      0.296010000000     0.047380000000     0.194610000000    -0.0811657  
C182     C      0.356310000000     0.070550000000     0.170980000000    -0.0737778  
C183     C      0.361410000000     0.021400000000     0.146230000000     0.0160376  
C184     C      0.296260000000     0.091150000000     0.231850000000     0.0139806  
C185     C      0.129820000000     0.873970000000     0.161250000000    -0.0795042  
C186     C      0.125730000000     0.919940000000     0.191710000000    -0.0778109  
C187     C      0.070160000000     0.922790000000     0.176000000000     0.00866083 
C188     C      0.187810000000     0.875400000000     0.176080000000     0.0106939  
C189     C      0.135760000000     0.398790000000     0.046090000000    -0.0718762  
C190     C      0.117650000000     0.390990000000     0.103090000000    -0.075265   
C191     C      0.170390000000     0.424850000000     0.142160000000     0.0180933  
C192     C      0.137000000000     0.346120000000     0.024960000000     0.0119333  
Co1      Co     0.165840000000     0.268350000000     0.180300000000     1.14604    
Co2      Co     0.160200000000     0.127630000000     0.142480000000     0.799107   
Co3      Co     0.264660000000     0.255480000000     0.120830000000     1.14873    
Co4      Co     0.134160000000     0.136940000000     0.197810000000     0.760879   
Co5      Co     0.241620000000     0.097620000000     0.599810000000     1.077      
Co6      Co     0.119810000000     0.046430000000     0.705400000000     1.0811     
Co7      Co     0.141890000000     0.966880000000     0.630580000000     1.07705    
Co8      Co     0.257990000000     0.092550000000     0.723770000000     1.07327    
Co9      Co     0.159030000000     0.586150000000     0.102930000000     1.13419    
Co10     Co     0.166190000000     0.695230000000     0.200540000000     0.880328   
Co11     Co     0.096310000000     0.557910000000     0.215550000000     1.12279    
Co12     Co     0.234380000000     0.700310000000     0.167990000000     0.873726   
Co13     Co     0.224830000000     0.519030000000     0.657500000000     1.03243    
Co14     Co     0.192010000000     0.641350000000     0.718510000000     1.07033    
Co15     Co     0.098690000000     0.513470000000     0.680480000000     1.12315    
Co16     Co     0.245730000000     0.625230000000     0.622620000000     1.09061    
Co17     Co     0.543680000000     0.167950000000     0.206170000000     1.16124    
Co18     Co     0.609270000000     0.120680000000     0.103430000000     0.768624   
Co19     Co     0.582040000000     0.166390000000     0.093220000000     0.771728   
Co20     Co     0.652360000000     0.141090000000     0.222330000000     1.13666    
Co21     Co     0.623200000000     0.100020000000     0.593600000000     0.911816   
Co22     Co     0.758070000000     0.092490000000     0.554670000000     1.10895    
Co23     Co     0.707770000000     0.170870000000     0.589510000000     0.925214   
Co24     Co     0.669120000000     0.021190000000     0.645260000000     1.12072    
Co25     Co     0.625510000000     0.619480000000     0.105460000000     1.12954    
Co26     Co     0.661800000000     0.760290000000     0.176470000000     0.906112   
Co27     Co     0.606040000000     0.635450000000     0.225970000000     1.14071    
Co28     Co     0.719050000000     0.748930000000     0.135680000000     0.906321   
Co29     Co     0.692880000000     0.512690000000     0.629650000000     1.15188    
Co30     Co     0.704500000000     0.637480000000     0.729530000000     0.882674   
Co31     Co     0.616770000000     0.554600000000     0.689390000000     1.13076    
Co32     Co     0.752400000000     0.650250000000     0.613700000000     1.10397    
H1       H      0.590680000000     0.681920000000     0.957720000000     0.0394298  
H2       H      0.642550000000     0.720430000000     0.908290000000     0.0261001  
H3       H      0.634090000000     0.554620000000     0.870620000000     0.0411149  
H4       H      0.564030000000     0.515640000000     0.900000000000     0.0253237  
H5       H      0.611140000000     0.638280000000     0.848650000000     0.0501028  
H6       H      0.547670000000     0.598760000000     0.887780000000     0.0445829  
H7       H      0.512690000000     0.505910000000     0.817530000000     0.101739   
H8       H      0.616090000000     0.604070000000     0.964190000000     0.0423504  
H9       H      0.678130000000     0.645520000000     0.923730000000     0.0470425  
H10      H      0.722750000000     0.755720000000     0.969660000000     0.105812   
H11      H      0.740510000000     0.724150000000     0.349670000000     0.0421025  
H12      H      0.743770000000     0.774880000000     0.395220000000     0.0239062  
H13      H      0.618270000000     0.623180000000     0.489200000000     0.040136   
H14      H      0.597680000000     0.578500000000     0.433000000000     0.0213712  
H15      H      0.720550000000     0.685150000000     0.460410000000     0.0525468  
H16      H      0.705230000000     0.636550000000     0.407430000000     0.0493693  
H17      H      0.643460000000     0.528150000000     0.469380000000     0.0989881  
H18      H      0.628860000000     0.659100000000     0.369350000000     0.0443134  
H19      H      0.643720000000     0.708190000000     0.421580000000     0.0431659  
H20      H      0.688120000000     0.801440000000     0.336270000000     0.103842   
H21      H      0.639870000000     0.865560000000     0.594530000000     0.0332422  
H22      H      0.624380000000     0.828960000000     0.534140000000     0.0237084  
H23      H      0.772610000000     0.797440000000     0.575410000000     0.0259237  
H24      H      0.809600000000     0.866730000000     0.606870000000     0.018392   
H25      H      0.675760000000     0.778620000000     0.597280000000     0.0569696  
H26      H      0.707400000000     0.837480000000     0.643210000000     0.0476165  
H27      H      0.799440000000     0.821790000000     0.689350000000     0.0986593  
H28      H      0.752660000000     0.911240000000     0.572660000000     0.0487194  
H29      H      0.724780000000     0.854720000000     0.525050000000     0.0416047  
H30      H      0.670490000000     0.921790000000     0.487160000000     0.100753   
H31      H      0.771610000000     0.333950000000     0.660740000000     0.0399526  
H32      H      0.710120000000     0.341230000000     0.636010000000     0.0346747  
H33      H      0.679620000000     0.377250000000     0.809500000000     0.024583   
H34      H      0.733870000000     0.438260000000     0.773660000000     0.0390617  
H35      H      0.638260000000     0.315340000000     0.736800000000     0.0440467  
H36      H      0.663540000000     0.374750000000     0.690600000000     0.054399   
H37      H      0.615520000000     0.414050000000     0.792160000000     0.104913   
H38      H      0.770110000000     0.400200000000     0.716670000000     0.0462736  
H39      H      0.739770000000     0.332520000000     0.753370000000     0.0461345  
H40      H      0.661450000000     0.241990000000     0.705750000000     0.101173   
H41      H      0.589510000000     0.035480000000     0.963370000000     0.0481041  
H42      H      0.525920000000     0.020830000000     0.923380000000     0.0314132  
H43      H      0.651790000000     0.120100000000     0.787890000000     0.0389903  
H44      H      0.632840000000     0.044200000000     0.793440000000     0.0361748  
H45      H      0.561430000000     0.097510000000     0.831550000000     0.0458315  
H46      H      0.536280000000     0.019960000000     0.831530000000     0.0453699  
H47      H      0.541280000000     0.063370000000     0.735770000000     0.102639   
H48      H      0.627680000000     0.039390000000     0.886090000000     0.0421955  
H49      H      0.649520000000     0.115370000000     0.889380000000     0.0511114  
H50      H      0.561050000000     0.130880000000     0.926100000000     0.101274   
H51      H      0.788000000000     0.293530000000     0.471220000000     0.0450311  
H52      H      0.856100000000     0.294850000000     0.463160000000     0.0272187  
H53      H      0.773810000000     0.359090000000     0.319690000000     0.0231633  
H54      H      0.777670000000     0.302400000000     0.287920000000     0.0379901  
H55      H      0.725400000000     0.292470000000     0.394350000000     0.049501   
H56      H      0.724640000000     0.232640000000     0.363030000000     0.0558092  
H57      H      0.668160000000     0.308140000000     0.307570000000     0.0991054  
H58      H      0.834130000000     0.284650000000     0.366970000000     0.040742   
H59      H      0.838190000000     0.349040000000     0.391790000000     0.0381592  
H60      H      0.778850000000     0.190110000000     0.417260000000     0.0981351  
H61      H      0.574310000000     0.956920000000     0.252430000000     0.0306675  
H62      H      0.532790000000     0.889590000000     0.218010000000     0.0257642  
H63      H      0.685280000000     0.964680000000     0.093550000000     0.0284997  
H64      H      0.711380000000     0.946820000000     0.153120000000     0.0375509  
H65      H      0.587780000000     0.919400000000     0.115940000000     0.0528328  
H66      H      0.590420000000     0.862890000000     0.155230000000     0.0630368  
H67      H      0.672400000000     0.878640000000     0.057810000000     0.102722   
H68      H      0.643170000000     0.927970000000     0.226910000000     0.0517805  
H69      H      0.656140000000     0.991820000000     0.189340000000     0.0561825  
H70      H      0.509040000000     0.938140000000     0.149960000000     0.104038   
H71      H      0.671420000000     0.496840000000     0.139200000000     0.0306183  
H72      H      0.692010000000     0.465080000000     0.193710000000     0.0218226  
H73      H      0.516860000000     0.305060000000     0.182790000000     0.0289896  
H74      H      0.497400000000     0.338340000000     0.128780000000     0.0203656  
H75      H      0.623410000000     0.362690000000     0.159420000000     0.0589193  
H76      H      0.603400000000     0.394650000000     0.104140000000     0.0475024  
H77      H      0.511180000000     0.281770000000     0.069400000000     0.104337   
H78      H      0.565260000000     0.438650000000     0.163870000000     0.0496053  
H79      H      0.586440000000     0.407630000000     0.219100000000     0.0436993  
H80      H      0.681020000000     0.524580000000     0.251220000000     0.0996411  
H81      H      0.000740000000     0.418100000000     0.558100000000     0.0373121  
H82      H      0.008230000000     0.381750000000     0.504740000000     0.0242657  
H83      H      0.928920000000     0.218460000000     0.609040000000     0.0330338  
H84      H      0.960950000000     0.268100000000     0.662110000000     0.0235379  
H85      H      0.913230000000     0.289390000000     0.555430000000     0.0535968  
H86      H      0.929980000000     0.335990000000     0.610250000000     0.0488956  
H87      H      0.867840000000     0.253500000000     0.682670000000     0.103496   
H88      H      0.032960000000     0.352530000000     0.617030000000     0.050849   
H89      H      0.017470000000     0.310220000000     0.559690000000     0.0419492  
H90      H      0.111410000000     0.418870000000     0.530130000000     0.0981538  
H91      H      0.332880000000     0.823640000000     0.640710000000     0.0315271  
H92      H      0.388120000000     0.865590000000     0.689830000000     0.0229326  
H93      H      0.522250000000     0.869400000000     0.594210000000     0.033487   
H94      H      0.470110000000     0.844710000000     0.539590000000     0.0256565  
H95      H      0.465400000000     0.917480000000     0.626930000000     0.0587672  
H96      H      0.410750000000     0.880400000000     0.575420000000     0.0462517  
H97      H      0.507770000000     0.943040000000     0.508100000000     0.102788   
H98      H      0.394610000000     0.783350000000     0.612630000000     0.065234   
H99      H      0.448980000000     0.821960000000     0.664250000000     0.0459038  
H100     H      0.356480000000     0.782230000000     0.743210000000     0.0970274  
H101     H      0.969020000000     0.544670000000     0.634390000000     0.0318281  
H102     H      0.940460000000     0.584860000000     0.663420000000     0.0268615  
H103     H      0.916670000000     0.666650000000     0.571910000000     0.0274193  
H104     H      0.876360000000     0.616560000000     0.520170000000     0.0304898  
H105     H      0.932080000000     0.561220000000     0.547670000000     0.045345   
H106     H      0.972460000000     0.632050000000     0.518010000000     0.0393586  
H107     H      0.859720000000     0.544670000000     0.611260000000     0.0990737  
H108     H      0.037680000000     0.636180000000     0.584700000000     0.0570398  
H109     H      0.006470000000     0.675200000000     0.611250000000     0.0423203  
H110     H      0.028420000000     0.639950000000     0.713560000000     0.096564   
H111     H      0.416100000000     0.721330000000     0.707760000000     0.0360902  
H112     H      0.464110000000     0.702620000000     0.745020000000     0.0234447  
H113     H      0.530780000000     0.630050000000     0.604080000000     0.0469535  
H114     H      0.545250000000     0.703530000000     0.600300000000     0.0258     
H115     H      0.442510000000     0.609770000000     0.636360000000     0.0475831  
H116     H      0.485150000000     0.629290000000     0.696370000000     0.0550654  
H117     H      0.600900000000     0.723300000000     0.686200000000     0.0977366  
H118     H      0.507520000000     0.739650000000     0.663500000000     0.0386291  
H119     H      0.439600000000     0.696720000000     0.626800000000     0.0541451  
H120     H      0.391240000000     0.603340000000     0.745590000000     0.104392   
H121     H      0.166630000000     0.687900000000     0.969350000000     0.0418572  
H122     H      0.231390000000     0.734610000000     0.934000000000     0.0262274  
H123     H      0.222180000000     0.577730000000     0.871940000000     0.039856   
H124     H      0.166760000000     0.532240000000     0.916740000000     0.0204145  
H125     H      0.185760000000     0.649390000000     0.867540000000     0.052813   
H126     H      0.127530000000     0.602180000000     0.910010000000     0.0482334  
H127     H      0.093430000000     0.497190000000     0.849430000000     0.0990689  
H128     H      0.202700000000     0.613230000000     0.979940000000     0.0373311  
H129     H      0.261480000000     0.660140000000     0.938030000000     0.0433891  
H130     H      0.292290000000     0.754650000000     0.011040000000     0.104044   
H131     H      0.132920000000     0.601810000000     0.420920000000     0.0260586  
H132     H      0.140050000000     0.562560000000     0.370040000000     0.0359994  
H133     H      0.324890000000     0.623900000000     0.433890000000     0.0266109  
H134     H      0.317620000000     0.674940000000     0.471680000000     0.0435727  
H135     H      0.218310000000     0.554390000000     0.431140000000     0.0445887  
H136     H      0.206550000000     0.595650000000     0.477400000000     0.0563133  
H137     H      0.303440000000     0.557890000000     0.506910000000     0.0953757  
H138     H      0.240890000000     0.680620000000     0.413420000000     0.0503905  
H139     H      0.247610000000     0.636550000000     0.366050000000     0.0584347  
H140     H      0.146540000000     0.680780000000     0.362780000000     0.104401   
H141     H      0.762660000000     0.371920000000     0.041450000000     0.0293133  
H142     H      0.722590000000     0.351700000000     0.099330000000     0.0416225  
H143     H      0.920820000000     0.479180000000     0.144910000000     0.0303293  
H144     H      0.935900000000     0.420000000000     0.142060000000     0.0329871  
H145     H      0.867990000000     0.448580000000     0.054510000000     0.0439982  
H146     H      0.876590000000     0.384960000000     0.060620000000     0.0457162  
H147     H      0.975020000000     0.498780000000     0.049200000000     0.100394   
H148     H      0.820450000000     0.356380000000     0.144230000000     0.0518099  
H149     H      0.812460000000     0.419650000000     0.135110000000     0.0397808  
H150     H      0.778420000000     0.283140000000     0.063310000000     0.103704   
H151     H      0.443740000000     0.984720000000     0.352850000000     0.0237292  
H152     H      0.432380000000     0.017330000000     0.293790000000     0.0339506  
H153     H      0.399730000000     0.852150000000     0.216840000000     0.0455707  
H154     H      0.428830000000     0.836390000000     0.276400000000     0.0290513  
H155     H      0.360680000000     0.903830000000     0.264280000000     0.0492496  
H156     H      0.382370000000     0.883040000000     0.325720000000     0.0439764  
H157     H      0.326320000000     0.776370000000     0.307130000000     0.100992   
H158     H      0.488720000000     0.939020000000     0.299390000000     0.0461711  
H159     H      0.465120000000     0.964440000000     0.241600000000     0.0555889  
H160     H      0.548560000000     0.041230000000     0.347280000000     0.104336   
H161     H      0.916810000000     0.559870000000     0.196040000000     0.0269715  
H162     H      0.959530000000     0.595670000000     0.253850000000     0.0357833  
H163     H      0.813850000000     0.648760000000     0.215470000000     0.0374491  
H164     H      0.866090000000     0.708600000000     0.175620000000     0.0386917  
H165     H      0.837120000000     0.580380000000     0.166610000000     0.042299   
H166     H      0.895930000000     0.645290000000     0.137360000000     0.0463587  
H167     H      0.781400000000     0.610070000000     0.110950000000     0.0988261  
H168     H      0.939620000000     0.681180000000     0.229200000000     0.0480184  
H169     H      0.880810000000     0.613560000000     0.254340000000     0.0408157  
H170     H      0.996890000000     0.672280000000     0.158660000000     0.103117   
H171     H      0.366200000000     0.571780000000     0.140820000000     0.0260047  
H172     H      0.300460000000     0.555150000000     0.103230000000     0.0310769  
H173     H      0.501830000000     0.755900000000     0.128840000000     0.0399513  
H174     H      0.430050000000     0.718720000000     0.153020000000     0.0354825  
H175     H      0.465390000000     0.697840000000     0.058400000000     0.0481643  
H176     H      0.459060000000     0.638150000000     0.097910000000     0.0586774  
H177     H      0.454680000000     0.658560000000     0.209530000000     0.0992515  
H178     H      0.361580000000     0.670840000000     0.075610000000     0.0580252  
H179     H      0.368030000000     0.616170000000     0.043930000000     0.0406427  
H180     H      0.351050000000     0.631940000000     0.196080000000     0.102406   
H181     H      0.940190000000     0.655620000000     0.721660000000     0.0246173  
H182     H      0.914280000000     0.690920000000     0.675100000000     0.0360005  
H183     H      0.063700000000     0.813770000000     0.797830000000     0.0266079  
H184     H      0.111530000000     0.841340000000     0.745100000000     0.0417069  
H185     H      0.020350000000     0.788000000000     0.682430000000     0.0425799  
H186     H      0.039000000000     0.742700000000     0.724020000000     0.0368397  
H187     H      0.016620000000     0.870170000000     0.767520000000     0.0991269  
H188     H      0.962420000000     0.733020000000     0.786720000000     0.0455463  
H189     H      0.939600000000     0.770120000000     0.738410000000     0.0531051  
H190     H      0.861210000000     0.633630000000     0.778690000000     0.102445   
H191     H      0.455850000000     0.444040000000     0.625680000000     0.0480138  
H192     H      0.449360000000     0.437860000000     0.556120000000     0.0287635  
H193     H      0.256230000000     0.287970000000     0.623230000000     0.0304795  
H194     H      0.289450000000     0.266650000000     0.576580000000     0.0336748  
H195     H      0.336330000000     0.374460000000     0.579210000000     0.0392587  
H196     H      0.353710000000     0.373740000000     0.647690000000     0.0452738  
H197     H      0.337860000000     0.277630000000     0.687550000000     0.100291   
H198     H      0.419080000000     0.333110000000     0.630910000000     0.05249    
H199     H      0.400360000000     0.331180000000     0.562360000000     0.0420262  
H200     H      0.516100000000     0.389660000000     0.571650000000     0.099191   
H201     H      0.013010000000     0.078600000000     0.600360000000     0.0431228  
H202     H      0.959630000000     0.035640000000     0.550290000000     0.0249467  
H203     H      0.812680000000     0.970450000000     0.647850000000     0.0272649  
H204     H      0.861040000000     0.991180000000     0.704560000000     0.0209004  
H205     H      0.887220000000     0.054530000000     0.597720000000     0.0516074  
H206     H      0.934310000000     0.085080000000     0.655450000000     0.0480321  
H207     H      0.825140000000     0.049140000000     0.726710000000     0.0998632  
H208     H      0.949150000000     0.000380000000     0.666420000000     0.0446446  
H209     H      0.895870000000     0.962220000000     0.614430000000     0.0412475  
H210     H      0.980830000000     0.956950000000     0.565700000000     0.0972054  
H211     H      0.429990000000     0.181140000000     0.619220000000     0.0358289  
H212     H      0.480440000000     0.161470000000     0.650650000000     0.0314288  
H213     H      0.471420000000     0.083430000000     0.501330000000     0.0360463  
H214     H      0.481150000000     0.143380000000     0.460140000000     0.022276   
H215     H      0.524020000000     0.191530000000     0.563900000000     0.0571647  
H216     H      0.463880000000     0.187520000000     0.524540000000     0.0379211  
H217     H      0.581820000000     0.176300000000     0.464180000000     0.102104   
H218     H      0.393530000000     0.092520000000     0.559790000000     0.0505273  
H219     H      0.450510000000     0.081050000000     0.590600000000     0.0665747  
H220     H      0.402080000000     0.076390000000     0.689360000000     0.102411   
H221     H      0.307800000000     0.905900000000     0.581670000000     0.0229841  
H222     H      0.279760000000     0.913130000000     0.640630000000     0.0397022  
H223     H      0.125580000000     0.737260000000     0.620560000000     0.0290746  
H224     H      0.124110000000     0.754380000000     0.552610000000     0.0199156  
H225     H      0.230110000000     0.797920000000     0.631070000000     0.0554753  
H226     H      0.241400000000     0.798450000000     0.562920000000     0.0529059  
H227     H      0.145040000000     0.682250000000     0.532360000000     0.102052   
H228     H      0.199570000000     0.861400000000     0.541720000000     0.0448745  
H229     H      0.177720000000     0.856450000000     0.607320000000     0.048481   
H230     H      0.302410000000     0.985180000000     0.544860000000     0.0968793  
H231     H      0.208090000000     0.402790000000     0.777690000000     0.0410288  
H232     H      0.149440000000     0.351160000000     0.817190000000     0.02531    
H233     H      0.126410000000     0.202920000000     0.734660000000     0.0327528  
H234     H      0.188150000000     0.249310000000     0.695070000000     0.0357986  
H235     H      0.175140000000     0.273770000000     0.807620000000     0.0453432  
H236     H      0.235590000000     0.321090000000     0.767030000000     0.044905   
H237     H      0.239930000000     0.228250000000     0.787410000000     0.0992926  
H238     H      0.166800000000     0.333420000000     0.703780000000     0.0452866  
H239     H      0.104670000000     0.282810000000     0.741090000000     0.0431123  
H240     H      0.076980000000     0.361890000000     0.762690000000     0.0992751  
H241     H      0.102500000000     0.003070000000     0.860290000000     0.0374306  
H242     H      0.094180000000     0.932310000000     0.873920000000     0.0262971  
H243     H      0.171790000000     0.051410000000     0.020140000000     0.0467007  
H244     H      0.245270000000     0.074240000000     0.001350000000     0.0316209  
H245     H      0.151380000000     0.080490000000     0.927320000000     0.0518231  
H246     H      0.220170000000     0.087170000000     0.910810000000     0.0510475  
H247     H      0.243700000000     0.173630000000     0.973360000000     0.100928   
H248     H      0.181210000000     0.981120000000     0.941970000000     0.0439246  
H249     H      0.113140000000     0.976710000000     0.956030000000     0.0418146  
H250     H      0.202200000000     0.975800000000     0.852080000000     0.102198   
H251     H      0.079570000000     0.063680000000     0.435370000000     0.0273168  
H252     H      0.120840000000     0.111590000000     0.488040000000     0.0411348  
H253     H      0.268160000000     0.212800000000     0.386540000000     0.0223389  
H254     H      0.235290000000     0.156930000000     0.338370000000     0.0421521  
H255     H      0.169490000000     0.188410000000     0.414240000000     0.0455244  
H256     H      0.133820000000     0.134330000000     0.364290000000     0.0598441  
H257     H      0.230330000000     0.269330000000     0.340150000000     0.0967261  
H258     H      0.176250000000     0.075870000000     0.405180000000     0.047621   
H259     H      0.215180000000     0.130270000000     0.454560000000     0.042766   
H260     H      0.096390000000     0.988990000000     0.471340000000     0.0996162  
H261     H      0.939300000000     0.913420000000     0.197190000000     0.0293099  
H262     H      0.903250000000     0.872750000000     0.139460000000     0.043775   
H263     H      0.917660000000     0.040690000000     0.067730000000     0.0246765  
H264     H      0.950510000000     0.068460000000     0.130760000000     0.0383187  
H265     H      0.940430000000     0.962150000000     0.075720000000     0.0496317  
H266     H      0.989170000000     0.993780000000     0.131590000000     0.0627148  
H267     H      0.012640000000     0.087030000000     0.032950000000     0.102654   
H268     H      0.899550000000     0.979010000000     0.179800000000     0.0490889  
H269     H      0.854340000000     0.936970000000     0.124910000000     0.0583484  
H270     H      0.848920000000     0.867660000000     0.239420000000     0.102683   
H271     H      0.425930000000     0.510330000000     0.212720000000     0.03134    
H272     H      0.376720000000     0.456150000000     0.167190000000     0.0280705  
H273     H      0.376450000000     0.327500000000     0.248540000000     0.0390095  
H274     H      0.366700000000     0.355570000000     0.306120000000     0.0228181  
H275     H      0.435820000000     0.456650000000     0.280620000000     0.0412383  
H276     H      0.468560000000     0.412680000000     0.274370000000     0.0360964  
H277     H      0.315860000000     0.400240000000     0.254860000000     0.0979424  
H278     H      0.494960000000     0.462760000000     0.197220000000     0.0534077  
H279     H      0.427440000000     0.401940000000     0.174570000000     0.0453758  
H280     H      0.438870000000     0.512370000000     0.100840000000     0.097912   
H281     H      0.808060000000     0.176450000000     0.209400000000     0.0330585  
H282     H      0.791150000000     0.101660000000     0.218370000000     0.0202938  
H283     H      0.966070000000     0.165050000000     0.152420000000     0.0380377  
H284     H      0.991120000000     0.229680000000     0.190260000000     0.0289209  
H285     H      0.889600000000     0.109780000000     0.225570000000     0.0439509  
H286     H      0.908870000000     0.182330000000     0.244810000000     0.0416728  
H287     H      0.984640000000     0.133300000000     0.256950000000     0.100869   
H288     H      0.882600000000     0.200430000000     0.149880000000     0.0468635  
H289     H      0.858490000000     0.124670000000     0.138200000000     0.0447401  
H290     H      0.755180000000     0.086550000000     0.122470000000     0.100252   
H291     H      0.328290000000     0.098620000000     0.265040000000     0.022288   
H292     H      0.252030000000     0.071950000000     0.248280000000     0.0412902  
H293     H      0.367200000000     0.993870000000     0.177340000000     0.030777   
H294     H      0.319480000000     0.992620000000     0.123890000000     0.0255253  
H295     H      0.390680000000     0.090260000000     0.202830000000     0.0536628  
H296     H      0.363230000000     0.105010000000     0.141170000000     0.0568185  
H297     H      0.402040000000     0.019060000000     0.077270000000     0.10759    
H298     H      0.261850000000     0.037540000000     0.162820000000     0.0535839  
H299     H      0.283990000000     0.006160000000     0.217030000000     0.0386512  
H300     H      0.357960000000     0.175760000000     0.199570000000     0.0984564  
H301     H      0.190920000000     0.867340000000     0.218540000000     0.0425164  
H302     H      0.225390000000     0.919660000000     0.167150000000     0.0230415  
H303     H      0.069100000000     0.933600000000     0.133910000000     0.0395582  
H304     H      0.030330000000     0.879360000000     0.183230000000     0.0255171  
H305     H      0.164890000000     0.963840000000     0.184740000000     0.0531097  
H306     H      0.125690000000     0.909280000000     0.233930000000     0.0467011  
H307     H      0.049860000000     0.953120000000     0.243280000000     0.0990937  
H308     H      0.092090000000     0.829550000000     0.169980000000     0.053621   
H309     H      0.127950000000     0.883340000000     0.118920000000     0.0470976  
H310     H      0.201910000000     0.842710000000     0.106910000000     0.103403   
H311     H      0.133620000000     0.348480000000     0.981870000000     0.0232353  
H312     H      0.097700000000     0.304020000000     0.036480000000     0.0405733  
H313     H      0.186080000000     0.395100000000     0.158050000000     0.0261035  
H314     H      0.208400000000     0.462300000000     0.123170000000     0.0330589  
H315     H      0.092780000000     0.343910000000     0.114980000000     0.0512145  
H316     H      0.085750000000     0.406610000000     0.105040000000     0.0541425  
H317     H      0.152840000000     0.429350000000     0.222250000000     0.0979029  
H318     H      0.102220000000     0.404050000000     0.021630000000     0.0364689  
H319     H      0.178500000000     0.439740000000     0.039790000000     0.0428776  
H320     H      0.227900000000     0.370380000000     0.016530000000     0.099232   
N1       N      0.558870000000     0.529050000000     0.819180000000    -0.211249   
N2       N      0.681350000000     0.724360000000     0.982760000000    -0.22805    
N3       N      0.653960000000     0.567000000000     0.487530000000    -0.230302   
N4       N      0.689610000000     0.763960000000     0.327770000000    -0.22815    
N5       N      0.776920000000     0.794320000000     0.657990000000    -0.233316   
N6       N      0.668610000000     0.921380000000     0.527490000000    -0.232547   
N7       N      0.648450000000     0.426690000000     0.765660000000    -0.235392   
N8       N      0.687890000000     0.260150000000     0.673800000000    -0.207306   
N9       N      0.580530000000     0.062180000000     0.738490000000    -0.226588   
N10      N      0.573610000000     0.107090000000     0.952070000000    -0.207807   
N11      N      0.691350000000     0.289590000000     0.293530000000    -0.231423   
N12      N      0.779490000000     0.212780000000     0.449580000000    -0.226959   
N13      N      0.673300000000     0.879320000000     0.098290000000    -0.209118   
N14      N      0.542660000000     0.964920000000     0.176710000000    -0.225324   
N15      N      0.524640000000     0.280090000000     0.108150000000    -0.231641   
N16      N      0.663940000000     0.523100000000     0.213230000000    -0.236363   
N17      N      0.869590000000     0.231990000000     0.650510000000    -0.228424   
N18      N      0.087080000000     0.432820000000     0.549460000000    -0.235051   
N19      N      0.524390000000     0.936630000000     0.544180000000    -0.227996   
N20      N      0.342360000000     0.774640000000     0.704110000000    -0.230504   
N21      N      0.855530000000     0.579500000000     0.595120000000    -0.238429   
N22      N      0.028020000000     0.611830000000     0.686270000000    -0.236145   
N23      N      0.587810000000     0.685660000000     0.664900000000    -0.227521   
N24      N      0.383870000000     0.630150000000     0.718720000000    -0.23299    
N25      N      0.133900000000     0.534060000000     0.840620000000    -0.227875   
N26      N      0.248040000000     0.721630000000     0.013090000000    -0.227891   
N27      N      0.302530000000     0.596500000000     0.511440000000    -0.213752   
N28      N      0.146870000000     0.644670000000     0.348390000000    -0.228247   
N29      N      0.980390000000     0.490630000000     0.088640000000    -0.233963   
N30      N      0.744910000000     0.290030000000     0.074400000000    -0.222127   
N31      N      0.336370000000     0.789320000000     0.268470000000    -0.207952   
N32      N      0.522060000000     0.046930000000     0.318310000000    -0.241735   
N33      N      0.789100000000     0.643570000000     0.135820000000    -0.226396   
N34      N      0.996530000000     0.639600000000     0.183470000000    -0.22558    
N35      N      0.485920000000     0.687660000000     0.183740000000    -0.225741   
N36      N      0.323390000000     0.616380000000     0.162670000000    -0.226309   
N37      N      0.053060000000     0.874700000000     0.749280000000    -0.229653   
N38      N      0.862110000000     0.651520000000     0.741500000000    -0.222235   
N39      N      0.309570000000     0.254950000000     0.655970000000    -0.229486   
N40      N      0.513440000000     0.420820000000     0.592940000000    -0.236652   
N41      N      0.824220000000     0.044520000000     0.686630000000    -0.233661   
N42      N      0.004770000000     0.995550000000     0.586790000000    -0.228204   
N43      N      0.559460000000     0.153130000000     0.497080000000    -0.207914   
N44      N      0.390990000000     0.100580000000     0.662500000000    -0.231498   
N45      N      0.152900000000     0.694460000000     0.571260000000    -0.227448   
N46      N      0.276230000000     0.964940000000     0.576650000000    -0.229929   
N47      N      0.206740000000     0.206890000000     0.758480000000    -0.232016   
N48      N      0.121910000000     0.388070000000     0.755740000000    -0.239338   
N49      N      0.225920000000     0.142550000000     0.003470000000    -0.226059   
N50      N      0.174020000000     0.991740000000     0.840170000000    -0.228675   
N51      N      0.223260000000     0.230510000000     0.324300000000    -0.22459    
N52      N      0.117480000000     0.029390000000     0.489900000000    -0.231524   
N53      N      0.010900000000     0.084800000000     0.073360000000    -0.226692   
N54      N      0.846970000000     0.860940000000     0.199630000000    -0.20825    
N55      N      0.325510000000     0.370450000000     0.239280000000    -0.238633   
N56      N      0.458360000000     0.520240000000     0.138400000000    -0.23783    
N57      N      0.004090000000     0.163010000000     0.226200000000    -0.227094   
N58      N      0.758230000000     0.118030000000     0.147460000000    -0.228978   
N59      N      0.410230000000     0.043270000000     0.110720000000    -0.231031   
N60      N      0.313070000000     0.147330000000     0.205350000000    -0.23073    
N61      N      0.068820000000     0.966680000000     0.207200000000    -0.211984   
N62      N      0.192880000000     0.832850000000     0.146120000000    -0.208966   
N63      N      0.153940000000     0.447330000000     0.185090000000    -0.237571   
N64      N      0.192100000000     0.346850000000     0.040210000000    -0.230143   
O1       O      0.155970000000     0.290550000000     0.112580000000    -0.460646   
O2       O      0.110030000000     0.126300000000     0.083870000000    -0.390598   
O3       O      0.237630000000     0.213710000000     0.057140000000    -0.452492   
O4       O      0.084780000000     0.153310000000     0.237610000000    -0.371814   
O5       O      0.204730000000     0.125100000000     0.088640000000    -0.385388   
O6       O      0.084290000000     0.212420000000     0.177170000000    -0.456876   
O7       O      0.062910000000     0.103710000000     0.150970000000    -0.412141   
O8       O      0.243700000000     0.311080000000     0.087190000000    -0.443046   
O9       O      0.181350000000     0.249900000000     0.252170000000    -0.441464   
O10      O      0.218930000000     0.128890000000     0.189760000000    -0.426457   
O11      O      0.299700000000     0.299270000000     0.180700000000    -0.488189   
O12      O      0.099360000000     0.061280000000     0.227280000000    -0.356233   
O13      O      0.120780000000     0.043590000000     0.150240000000    -0.362546   
O14      O      0.242960000000     0.335490000000     0.186700000000    -0.484198   
O15      O      0.191280000000     0.170880000000     0.254210000000    -0.369157   
O16      O      0.292070000000     0.205240000000     0.151630000000    -0.457557   
O17      O      0.186050000000     0.211580000000     0.152610000000    -0.561698   
O18      O      0.172070000000     0.081320000000     0.560660000000    -0.449576   
O19      O      0.159430000000     0.128810000000     0.705020000000    -0.450961   
O20      O      0.065180000000     0.962880000000     0.621090000000    -0.442451   
O21      O      0.300920000000     0.170300000000     0.690200000000    -0.441418   
O22      O      0.083050000000     0.049860000000     0.642160000000    -0.449588   
O23      O      0.245420000000     0.165940000000     0.621380000000    -0.447128   
O24      O      0.227530000000     0.133430000000     0.760400000000    -0.448336   
O25      O      0.144230000000     0.988810000000     0.557670000000    -0.452253   
O26      O      0.320260000000     0.119660000000     0.628100000000    -0.448108   
O27      O      0.069540000000     0.961820000000     0.714050000000    -0.449123   
O28      O      0.211690000000     0.963880000000     0.631670000000    -0.4446     
O29      O      0.221300000000     0.024180000000     0.765090000000    -0.444826   
O30      O      0.147040000000     0.037490000000     0.776000000000    -0.440454   
O31      O      0.248380000000     0.033610000000     0.572230000000    -0.443806   
O32      O      0.300540000000     0.061300000000     0.695380000000    -0.445395   
O33      O      0.129190000000     0.931310000000     0.697010000000    -0.450431   
O34      O      0.190130000000     0.050970000000     0.664800000000    -0.526104   
O35      O      0.078010000000     0.558830000000     0.086290000000    -0.458903   
O36      O      0.176780000000     0.767910000000     0.213840000000    -0.374792   
O37      O      0.046810000000     0.594090000000     0.215470000000    -0.434697   
O38      O      0.261980000000     0.709630000000     0.099380000000    -0.394709   
O39      O      0.091730000000     0.673730000000     0.166290000000    -0.39854    
O40      O      0.175280000000     0.654370000000     0.063430000000    -0.4561     
O41      O      0.202560000000     0.752460000000     0.139760000000    -0.427606   
O42      O      0.042990000000     0.512540000000     0.159920000000    -0.465299   
O43      O      0.242130000000     0.607470000000     0.116000000000    -0.436816   
O44      O      0.131600000000     0.671100000000     0.266760000000    -0.394622   
O45      O      0.136270000000     0.515070000000     0.217430000000    -0.462235   
O46      O      0.304430000000     0.769220000000     0.183150000000    -0.37012    
O47      O      0.242240000000     0.720400000000     0.244030000000    -0.431847   
O48      O      0.142930000000     0.513330000000     0.133440000000    -0.47776    
O49      O      0.270980000000     0.655770000000     0.189430000000    -0.397802   
O50      O      0.141800000000     0.594820000000     0.276910000000    -0.451399   
O51      O      0.157230000000     0.622620000000     0.169540000000    -0.574387   
O52      O      0.161120000000     0.473040000000     0.610620000000    -0.477796   
O53      O      0.184340000000     0.681820000000     0.653250000000    -0.427698   
O54      O      0.076450000000     0.568720000000     0.656560000000    -0.468318   
O55      O      0.286630000000     0.652450000000     0.565170000000    -0.425023   
O56      O      0.110790000000     0.618870000000     0.725570000000    -0.46365    
O57      O      0.264530000000     0.562620000000     0.591230000000    -0.475093   
O58      O      0.182240000000     0.628090000000     0.588610000000    -0.444726   
O59      O      0.089450000000     0.492600000000     0.610900000000    -0.466693   
O60      O      0.290890000000     0.556440000000     0.702430000000    -0.463078   
O61      O      0.190970000000     0.600290000000     0.779580000000    -0.442174   
O62      O      0.101200000000     0.446180000000     0.702940000000    -0.491192   
O63      O      0.283550000000     0.707410000000     0.642870000000    -0.404438   
O64      O      0.275150000000     0.680190000000     0.723320000000    -0.453885   
O65      O      0.192560000000     0.469040000000     0.714890000000    -0.459006   
O66      O      0.319250000000     0.636370000000     0.659150000000    -0.433363   
O67      O      0.102320000000     0.526070000000     0.755740000000    -0.436306   
O68      O      0.190190000000     0.574750000000     0.677590000000    -0.567892   
O69      O      0.478590000000     0.117480000000     0.161520000000    -0.467994   
O70      O      0.553760000000     0.044860000000     0.130900000000    -0.369635   
O71      O      0.575440000000     0.162180000000     0.019000000000    -0.354693   
O72      O      0.603970000000     0.116400000000     0.280160000000    -0.486723   
O73      O      0.598680000000     0.092670000000     0.036090000000    -0.356651   
O74      O      0.519420000000     0.099030000000     0.246710000000    -0.488331   
O75      O      0.610670000000     0.057730000000     0.202780000000    -0.435913   
O76      O      0.507500000000     0.095090000000     0.092630000000    -0.413874   
O77      O      0.605960000000     0.219750000000     0.254800000000    -0.452378   
O78      O      0.680950000000     0.191470000000     0.078980000000    -0.399657   
O79      O      0.537360000000     0.204630000000     0.090200000000    -0.382438   
O80      O      0.712910000000     0.165010000000     0.175580000000    -0.45503    
O81      O      0.666500000000     0.097150000000     0.118780000000    -0.373926   
O82      O      0.558900000000     0.237630000000     0.168780000000    -0.45901    
O83      O      0.688940000000     0.218590000000     0.245190000000    -0.454112   
O84      O      0.647770000000     0.246000000000     0.093160000000    -0.383304   
O85      O      0.601840000000     0.157530000000     0.169400000000    -0.553788   
O86      O      0.563740000000     0.114200000000     0.576900000000    -0.387326   
O87      O      0.704250000000     0.019430000000     0.524860000000    -0.45422    
O88      O      0.762040000000     0.207610000000     0.535320000000    -0.40084    
O89      O      0.589220000000     0.977430000000     0.613750000000    -0.439939   
O90      O      0.738790000000     0.127600000000     0.496420000000    -0.451517   
O91      O      0.587090000000     0.034550000000     0.549390000000    -0.406453   
O92      O      0.683330000000     0.973300000000     0.600350000000    -0.45423    
O93      O      0.644330000000     0.158360000000     0.532340000000    -0.431245   
O94      O      0.576600000000     0.054010000000     0.650980000000    -0.395646   
O95      O      0.818530000000     0.166940000000     0.585510000000    -0.437997   
O96      O      0.716280000000     0.243170000000     0.597920000000    -0.38129    
O97      O      0.745760000000     0.057530000000     0.677420000000    -0.4559     
O98      O      0.787340000000     0.056610000000     0.607420000000    -0.450292   
O99      O      0.654230000000     0.167640000000     0.644770000000    -0.436293   
O100     O      0.651480000000     0.059040000000     0.695410000000    -0.454155   
O101     O      0.770700000000     0.189250000000     0.639000000000    -0.407785   
O102     O      0.693430000000     0.089190000000     0.595740000000    -0.598773   
O103     O      0.544490000000     0.592620000000     0.107770000000    -0.469199   
O104     O      0.675030000000     0.834810000000     0.175600000000    -0.382265   
O105     O      0.553800000000     0.668280000000     0.224410000000    -0.440818   
O106     O      0.721220000000     0.734050000000     0.064540000000    -0.397331   
O107     O      0.580440000000     0.730640000000     0.157680000000    -0.40115    
O108     O      0.627680000000     0.671920000000     0.051630000000    -0.453222   
O109     O      0.683180000000     0.797830000000     0.104380000000    -0.430022   
O110     O      0.540250000000     0.571640000000     0.191010000000    -0.471305   
O111     O      0.706380000000     0.638900000000     0.099400000000    -0.449762   
O112     O      0.646790000000     0.760370000000     0.247970000000    -0.399458   
O113     O      0.650530000000     0.598310000000     0.230050000000    -0.469949   
O114     O      0.790440000000     0.814470000000     0.127430000000    -0.381958   
O115     O      0.748050000000     0.795850000000     0.202290000000    -0.434539   
O116     O      0.622100000000     0.558880000000     0.153030000000    -0.460647   
O117     O      0.757890000000     0.705750000000     0.158480000000    -0.395537   
O118     O      0.666820000000     0.692560000000     0.269790000000    -0.458735   
O119     O      0.645540000000     0.679600000000     0.161070000000    -0.595537   
O120     O      0.610580000000     0.462090000000     0.616420000000    -0.485911   
O121     O      0.762800000000     0.715110000000     0.706890000000    -0.421402   
O122     O      0.601820000000     0.609010000000     0.652110000000    -0.437037   
O123     O      0.698590000000     0.626830000000     0.556600000000    -0.448054   
O124     O      0.649010000000     0.665020000000     0.716030000000    -0.448246   
O125     O      0.690980000000     0.539140000000     0.557720000000    -0.450102   
O126     O      0.724550000000     0.700330000000     0.629640000000    -0.460048   
O127     O      0.562600000000     0.503100000000     0.640700000000    -0.450812   
O128     O      0.774540000000     0.548950000000     0.640580000000    -0.484398   
O129     O      0.644480000000     0.573680000000     0.774450000000    -0.433924   
O130     O      0.622570000000     0.489120000000     0.725020000000    -0.435983   
O131     O      0.811360000000     0.668640000000     0.673850000000    -0.415551   
O132     O      0.764310000000     0.619430000000     0.745320000000    -0.415792   
O133     O      0.692640000000     0.480470000000     0.694490000000    -0.480852   
O134     O      0.794270000000     0.617130000000     0.583960000000    -0.468175   
O135     O      0.557060000000     0.536540000000     0.731190000000    -0.426857   
O136     O      0.689410000000     0.584280000000     0.657090000000    -0.585903   


