data_structure

_audit_creation_method RASPA-1.0
_audit_creation_date 2023-6-4
_audit_author_name 'Poobodin Mano'

_cell_length_a    23.2562
_cell_length_b    23.6759
_cell_length_c    24.2281
_cell_angle_alpha 87.1406
_cell_angle_beta  93.8136
_cell_angle_gamma 120.435
_cell_volume      11474.5

_symmetry_cell_setting          triclinic
_symmetry_space_group_name_Hall 'P 1'
_symmetry_space_group_name_H-M  'P 1'
_symmetry_Int_Tables_number     1

_symmetry_equiv_pos_as_xyz 'x,y,z'

loop_
_atom_site_label
_atom_site_type_symbol
_atom_site_fract_x
_atom_site_fract_y
_atom_site_fract_z
_atom_site_charge
C1       C      0.040230000000     0.187050000000     0.026730000000     0.459378   
C2       C      0.895740000000     0.923570000000     0.980720000000     0.426994   
C3       C      0.029510000000     0.012790000000     0.905890000000     0.466126   
C4       C      0.930560000000     0.081750000000     0.111370000000     0.4322     
C5       C      0.011360000000     0.006150000000     0.178670000000     0.454108   
C6       C      0.171270000000     0.053590000000     0.001050000000     0.444054   
C7       C      0.187570000000     0.179460000000     0.056800000000     0.481944   
C8       C      0.975660000000     0.885430000000     0.094830000000     0.427885   
C9       C      0.026600000000     0.010330000000     0.400970000000     0.541628   
C10      C      0.063360000000     0.173360000000     0.631940000000     0.389387   
C11      C      0.939470000000     0.061840000000     0.533290000000     0.452803   
C12      C      0.194600000000     0.200980000000     0.481050000000     0.491805   
C13      C      0.253700000000     0.106610000000     0.556170000000     0.505296   
C14      C      0.943110000000     0.932290000000     0.604970000000     0.422239   
C15      C      0.087440000000     0.931810000000     0.485500000000     0.50958    
C16      C      0.105060000000     0.057030000000     0.687990000000     0.478791   
C17      C      0.911230000000     0.386030000000     0.011690000000     0.485755   
C18      C      0.040800000000     0.698050000000     0.078960000000     0.360377   
C19      C      0.904100000000     0.528570000000     0.109550000000     0.523136   
C20      C      0.057930000000     0.553540000000     0.932080000000     0.462531   
C21      C      0.192540000000     0.566500000000     0.043880000000     0.484241   
C22      C      0.034050000000     0.527410000000     0.207570000000     0.452456   
C23      C      0.033930000000     0.378160000000     0.101610000000     0.499692   
C24      C      0.183230000000     0.711920000000     0.077390000000     0.367122   
C25      C      0.940520000000     0.392450000000     0.545860000000     0.371961   
C26      C      0.094910000000     0.709720000000     0.523230000000     0.526623   
C27      C      0.943210000000     0.544590000000     0.589460000000     0.479776   
C28      C      0.088080000000     0.542900000000     0.435420000000     0.447664   
C29      C      0.215080000000     0.551050000000     0.538020000000     0.484336   
C30      C      0.054960000000     0.545480000000     0.704020000000     0.436262   
C31      C      0.080340000000     0.401970000000     0.596310000000     0.364213   
C32      C      0.227820000000     0.711130000000     0.608120000000     0.510453   
C33      C      0.412290000000     0.062410000000     0.004290000000     0.464532   
C34      C      0.573360000000     0.917540000000     0.999030000000     0.456247   
C35      C      0.566310000000     0.055060000000     0.874290000000     0.556419   
C36      C      0.428520000000     0.935690000000     0.077430000000     0.474985   
C37      C      0.546730000000     0.005590000000     0.171890000000     0.390171   
C38      C      0.686550000000     0.186600000000     0.951860000000     0.489653   
C39      C      0.562910000000     0.197180000000     0.054300000000     0.466022   
C40      C      0.699130000000     0.054880000000     0.081850000000     0.492501   
C41      C      0.422110000000     0.054220000000     0.495220000000     0.475589   
C42      C      0.590330000000     0.919600000000     0.474230000000     0.427426   
C43      C      0.564390000000     0.052630000000     0.385680000000     0.484904   
C44      C      0.435050000000     0.921620000000     0.603880000000     0.456632   
C45      C      0.587240000000     0.043750000000     0.650550000000     0.478824   
C46      C      0.717190000000     0.166610000000     0.468170000000     0.371397   
C47      C      0.539020000000     0.162830000000     0.590050000000     0.378917   
C48      C      0.695960000000     0.039350000000     0.573420000000     0.449426   
C49      C      0.414980000000     0.418990000000     0.027360000000     0.471333   
C50      C      0.529900000000     0.676030000000     0.980400000000     0.452229   
C51      C      0.440200000000     0.607800000000     0.121730000000     0.39874    
C52      C      0.576850000000     0.559690000000     0.906180000000     0.467241   
C53      C      0.700470000000     0.567150000000     0.017960000000     0.493333   
C54      C      0.583270000000     0.588210000000     0.184230000000     0.471085   
C55      C      0.550340000000     0.421560000000     0.096820000000     0.463609   
C56      C      0.666430000000     0.734700000000     0.064700000000     0.417253   
C57      C      0.423620000000     0.394660000000     0.499210000000     0.497887   
C58      C      0.596100000000     0.700580000000     0.508230000000     0.367848   
C59      C      0.446390000000     0.548900000000     0.565750000000     0.470786   
C60      C      0.612200000000     0.561010000000     0.406180000000     0.457591   
C61      C      0.710550000000     0.541290000000     0.522160000000     0.459774   
C62      C      0.562130000000     0.560670000000     0.676730000000     0.440814   
C63      C      0.553940000000     0.380270000000     0.586260000000     0.523399   
C64      C      0.729500000000     0.699660000000     0.561810000000     0.377082   
C65      C      0.619710000000     0.620590000000     0.817690000000    -0.0116967  
C66      C      0.533450000000     0.499740000000     0.819200000000    -0.0409712  
C67      C      0.589770000000     0.627670000000     0.760390000000    -0.00950636 
C68      C      0.502730000000     0.509820000000     0.764550000000     0.093633   
C69      C      0.582640000000     0.520050000000     0.312130000000    -0.00726433 
C70      C      0.639200000000     0.642330000000     0.329190000000    -0.0411006  
C71      C      0.619210000000     0.537190000000     0.258930000000    -0.00896802 
C72      C      0.659030000000     0.655000000000     0.267140000000     0.0927219  
C73      C      0.659580000000     0.807310000000     0.462520000000    -0.0120749  
C74      C      0.538570000000     0.743200000000     0.447410000000    -0.0390293  
C75      C      0.658850000000     0.870280000000     0.471590000000    -0.0119501  
C76      C      0.529480000000     0.801050000000     0.458410000000     0.0933956  
C77      C      0.509190000000     0.222020000000     0.653780000000    -0.0171315  
C78      C      0.625980000000     0.271860000000     0.622720000000    -0.0416793  
C79      C      0.528920000000     0.294740000000     0.659610000000    -0.00334898 
C80      C      0.626110000000     0.332220000000     0.596860000000     0.095448   
C81      C      0.555460000000     0.087960000000     0.722970000000    -0.0130565  
C82      C      0.584040000000     0.998940000000     0.741630000000    -0.0382902  
C83      C      0.565900000000     0.102230000000     0.784860000000    -0.00424067 
C84      C      0.607510000000     0.022630000000     0.799540000000     0.100272   
C85      C      0.490920000000     0.033290000000     0.240690000000    -0.00275477 
C86      C      0.520640000000     0.947780000000     0.261320000000    -0.0424476  
C87      C      0.530830000000     0.071520000000     0.292170000000    -0.0136955  
C88      C      0.567770000000     0.987070000000     0.309220000000     0.099919   
C89      C      0.572370000000     0.844710000000     0.928600000000    -0.0134826  
C90      C      0.504280000000     0.796810000000     0.014320000000    -0.0447169  
C91      C      0.570020000000     0.777970000000     0.923430000000    -0.012277   
C92      C      0.467450000000     0.737770000000     0.975030000000     0.0983429  
C93      C      0.540460000000     0.284160000000     0.023570000000    -0.0142339  
C94      C      0.566940000000     0.272330000000     0.125600000000    -0.0381692  
C95      C      0.571360000000     0.355460000000     0.037230000000     0.00512249 
C96      C      0.532820000000     0.313720000000     0.134300000000     0.0916017  
C97      C      0.770730000000     0.254870000000     0.533590000000    -0.0164033  
C98      C      0.838500000000     0.242590000000     0.462220000000    -0.040798   
C99      C      0.819680000000     0.327920000000     0.534720000000    -0.00906252 
C100     C      0.888300000000     0.317040000000     0.465320000000     0.0917367  
C101     C      0.409130000000     0.816200000000     0.647630000000    -0.00079588 
C102     C      0.348160000000     0.871780000000     0.673270000000    -0.0372534  
C103     C      0.347790000000     0.757550000000     0.622640000000    -0.00661621 
C104     C      0.285690000000     0.801380000000     0.675470000000     0.0927164  
C105     C      0.794840000000     0.511700000000     0.501010000000    -0.0111905  
C106     C      0.822770000000     0.599750000000     0.568350000000    -0.0425993  
C107     C      0.833830000000     0.487850000000     0.539300000000    -0.0119334  
C108     C      0.854410000000     0.571590000000     0.609550000000     0.0973544  
C109     C      0.339910000000     0.525210000000     0.602120000000    -0.0108773  
C110     C      0.380160000000     0.588630000000     0.511920000000    -0.0428276  
C111     C      0.269050000000     0.490520000000     0.576600000000    -0.00723145 
C112     C      0.308280000000     0.552340000000     0.488040000000     0.0979031  
C113     C      0.013620000000     0.485490000000     0.793500000000    -0.0156718  
C114     C      0.103810000000     0.604680000000     0.791300000000    -0.039693   
C115     C      0.990360000000     0.499140000000     0.847000000000    -0.00763415 
C116     C      0.075420000000     0.617700000000     0.841550000000     0.0924981  
C117     C      0.044760000000     0.469330000000     0.353560000000    -0.013214   
C118     C      0.042250000000     0.573220000000     0.352380000000    -0.0419167  
C119     C      0.062430000000     0.481780000000     0.291890000000    -0.0118328  
C120     C      0.070080000000     0.591960000000     0.294920000000     0.0956266  
C121     C      0.856510000000     0.284540000000     0.959840000000    -0.0137572  
C122     C      0.794870000000     0.345060000000     0.981700000000    -0.039033   
C123     C      0.800110000000     0.246160000000     0.916870000000    -0.00176982 
C124     C      0.745070000000     0.308340000000     0.933940000000     0.0931398  
C125     C      0.359560000000     0.821360000000     0.052210000000    -0.00733313 
C126     C      0.336210000000     0.861950000000     0.136430000000    -0.0364359  
C127     C      0.286560000000     0.783900000000     0.036070000000    -0.0108651  
C128     C      0.260890000000     0.811320000000     0.128040000000     0.0867133  
C129     C      0.793400000000     0.599690000000     0.085890000000    -0.00937861 
C130     C      0.758290000000     0.502470000000     0.024230000000    -0.0358703  
C131     C      0.859450000000     0.600860000000     0.091230000000    -0.00886682 
C132     C      0.787380000000     0.478460000000     0.073270000000     0.0952815  
C133     C      0.318310000000     0.529910000000     0.113180000000    -0.0115038  
C134     C      0.361380000000     0.649750000000     0.126510000000    -0.0387977  
C135     C      0.275460000000     0.531090000000     0.062790000000    -0.00198907 
C136     C      0.285940000000     0.628240000000     0.113540000000     0.0905503  
C137     C      0.830080000000     0.847590000000     0.636520000000    -0.0107716  
C138     C      0.862810000000     0.850760000000     0.539370000000    -0.0143435  
C139     C      0.802790000000     0.772060000000     0.638360000000    -0.0163895  
C140     C      0.850040000000     0.781580000000     0.546890000000     0.0860186  
C141     C      0.311490000000     0.380320000000     0.486200000000    -0.0100046  
C142     C      0.347710000000     0.324110000000     0.423080000000    -0.035931   
C143     C      0.244260000000     0.318580000000     0.495160000000    -0.00509965 
C144     C      0.271320000000     0.276800000000     0.410930000000     0.0929407  
C145     C      0.819790000000     0.115350000000     0.577830000000    -0.0110038  
C146     C      0.766570000000     0.991880000000     0.571280000000    -0.0460607  
C147     C      0.876960000000     0.119520000000     0.544750000000    -0.00938706 
C148     C      0.836700000000     0.004880000000     0.585060000000     0.0999244  
C149     C      0.364940000000     0.150850000000     0.522430000000    -0.00833181 
C150     C      0.314250000000     0.050150000000     0.582560000000    -0.0438714  
C151     C      0.358700000000     0.109890000000     0.472630000000    -0.0056505  
C152     C      0.308240000000     0.009760000000     0.531800000000     0.0966657  
C153     C      0.133490000000     0.804640000000     0.459020000000    -0.00863249 
C154     C      0.022730000000     0.755970000000     0.506080000000    -0.0343103  
C155     C      0.146990000000     0.872740000000     0.472670000000    -0.00452235 
C156     C      0.019230000000     0.812540000000     0.476000000000     0.0932539  
C157     C      0.121420000000     0.327040000000     0.584530000000    -0.0129857  
C158     C      0.070770000000     0.323060000000     0.673280000000    -0.0423963  
C159     C      0.064640000000     0.259320000000     0.571620000000    -0.0027036  
C160     C      0.022920000000     0.247020000000     0.666490000000     0.0860811  
C161     C      0.102590000000     0.100940000000     0.775380000000    -0.0146759  
C162     C      0.035130000000     0.979580000000     0.758290000000    -0.0383222  
C163     C      0.101610000000     0.086590000000     0.837380000000    -0.0011729  
C164     C      0.038100000000     0.966080000000     0.820710000000     0.091523   
C165     C      0.069040000000     0.010000000000     0.266680000000    -0.0126803  
C166     C      0.948080000000     0.985410000000     0.260950000000    -0.0408627  
C167     C      0.052920000000     0.971070000000     0.320180000000    -0.000634269
C168     C      0.940650000000     0.958290000000     0.321070000000     0.0958671  
C169     C      0.738860000000     0.759690000000     0.984920000000    -0.0196791  
C170     C      0.722430000000     0.846960000000     0.024100000000    -0.038626   
C171     C      0.813160000000     0.807090000000     0.982840000000    -0.00300701 
C172     C      0.775780000000     0.891740000000     0.981740000000     0.0867404  
C173     C      0.358320000000     0.300530000000     0.014760000000    -0.00706548 
C174     C      0.332110000000     0.346170000000     0.093350000000    -0.0338501  
C175     C      0.285490000000     0.247940000000     0.008010000000    -0.0119569  
C176     C      0.260330000000     0.287310000000     0.093220000000     0.086958   
C177     C      0.815120000000     0.992930000000     0.120900000000     0.0107808  
C178     C      0.855450000000     0.093780000000     0.174030000000    -0.0379719  
C179     C      0.767090000000     0.004720000000     0.084270000000    -0.0140278  
C180     C      0.782110000000     0.081820000000     0.162940000000     0.091825   
C181     C      0.311920000000     0.046730000000     0.946270000000    -0.0119361  
C182     C      0.306130000000     0.024810000000     0.048220000000    -0.0401307  
C183     C      0.273540000000     0.084220000000     0.950820000000    -0.0113944  
C184     C      0.274200000000     0.066640000000     0.053940000000     0.0950127  
C185     C      0.001240000000     0.806420000000     0.141900000000    -0.0108783  
C186     C      0.944540000000     0.782060000000     0.047320000000    -0.0475094  
C187     C      0.056700000000     0.798680000000     0.119690000000    -0.0128886  
C188     C      0.998390000000     0.767950000000     0.027130000000     0.0905736  
C189     C      0.092290000000     0.305230000000     0.028170000000    -0.00634013 
C190     C      0.969520000000     0.233600000000     0.035630000000    -0.0445315  
C191     C      0.098890000000     0.324840000000     0.088820000000    -0.00822776 
C192     C      0.976900000000     0.254840000000     0.096420000000     0.0939134  
Co1      Co     0.070050000000     0.112240000000     0.112030000000     1.05552    
Co2      Co     0.039920000000     0.964110000000     0.014870000000     1.05913    
Co3      Co     0.080260000000     0.109430000000     0.977850000000     1.0844     
Co4      Co     0.936210000000     0.985500000000     0.070100000000     1.05901    
Co5      Co     0.149810000000     0.069330000000     0.471760000000     1.20503    
Co6      Co     0.038970000000     0.071430000000     0.599320000000     0.93825    
Co7      Co     0.991610000000     0.974420000000     0.508530000000     1.14162    
Co8      Co     0.160730000000     0.136780000000     0.595010000000     0.974928   
Co9      Co     0.060970000000     0.464840000000     0.018180000000     1.14324    
Co10     Co     0.052020000000     0.609250000000     0.104200000000     0.840747   
Co11     Co     0.954830000000     0.443040000000     0.115240000000     1.15283    
Co12     Co     0.095790000000     0.619370000000     0.043440000000     0.757013   
Co13     Co     0.082720000000     0.487670000000     0.548120000000     0.833442   
Co14     Co     0.079950000000     0.634210000000     0.620360000000     1.17673    
Co15     Co     0.017640000000     0.482340000000     0.593450000000     0.802772   
Co16     Co     0.164900000000     0.636730000000     0.512360000000     1.20527    
Co17     Co     0.512200000000     0.072770000000     0.090460000000     0.944491   
Co18     Co     0.640630000000     0.053270000000     0.972680000000     1.22074    
Co19     Co     0.535170000000     0.111880000000     0.955740000000     1.13336    
Co20     Co     0.560240000000     0.001510000000     0.077730000000     1.01127    
Co21     Co     0.512950000000     0.056250000000     0.566510000000     1.10149    
Co22     Co     0.638260000000     0.061870000000     0.485210000000     1.11897    
Co23     Co     0.563520000000     0.120930000000     0.480610000000     0.830734   
Co24     Co     0.551450000000     0.949800000000     0.563700000000     1.14603    
Co25     Co     0.561890000000     0.489000000000     0.002550000000     1.08402    
Co26     Co     0.537760000000     0.632800000000     0.084630000000     1.02632    
Co27     Co     0.484530000000     0.501300000000     0.106370000000     1.02497    
Co28     Co     0.639050000000     0.641080000000     0.007030000000     1.13166    
Co29     Co     0.570260000000     0.458610000000     0.484380000000     1.13688    
Co30     Co     0.585760000000     0.615110000000     0.562000000000     0.747891   
Co31     Co     0.495930000000     0.463980000000     0.601430000000     1.17757    
Co32     Co     0.642610000000     0.610620000000     0.517780000000     0.842141   
H1       H      0.554050000000     0.644880000000     0.765920000000     0.040114   
H2       H      0.635350000000     0.665800000000     0.841100000000     0.0385098  
H3       H      0.465640000000     0.523800000000     0.774800000000     0.0215444  
H4       H      0.491920000000     0.461780000000     0.843750000000     0.0552633  
H5       H      0.631000000000     0.665620000000     0.735540000000     0.0414989  
H6       H      0.665090000000     0.617680000000     0.811580000000     0.04135    
H7       H      0.567070000000     0.480750000000     0.811070000000     0.0480715  
H8       H      0.440120000000     0.451650000000     0.699620000000     0.0744228  
H9       H      0.495250000000     0.427180000000     0.728260000000     0.0916616  
H10      H      0.671420000000     0.548350000000     0.268210000000     0.0380909  
H11      H      0.581180000000     0.475140000000     0.330090000000     0.0341608  
H12      H      0.712440000000     0.668710000000     0.267000000000     0.0197195  
H13      H      0.682370000000     0.678730000000     0.355090000000     0.0568767  
H14      H      0.595640000000     0.493790000000     0.231850000000     0.0454804  
H15      H      0.530480000000     0.509170000000     0.303370000000     0.0460321  
H16      H      0.597340000000     0.651490000000     0.333760000000     0.0520924  
H17      H      0.678930000000     0.728700000000     0.208030000000     0.108497   
H18      H      0.604410000000     0.700240000000     0.240690000000     0.10386    
H19      H      0.671600000000     0.879980000000     0.516330000000     0.0401093  
H20      H      0.702860000000     0.809100000000     0.486690000000     0.0383866  
H21      H      0.507740000000     0.791140000000     0.499870000000     0.0243842  
H22      H      0.493150000000     0.697260000000     0.459260000000     0.0492512  
H23      H      0.697960000000     0.910900000000     0.446950000000     0.0405749  
H24      H      0.666210000000     0.803320000000     0.418090000000     0.0395403  
H25      H      0.545180000000     0.740490000000     0.402690000000     0.0494588  
H26      H      0.460770000000     0.828920000000     0.428520000000     0.101988   
H27      H      0.500750000000     0.814370000000     0.377760000000     0.0902435  
H28      H      0.482600000000     0.296750000000     0.663550000000     0.0358075  
H29      H      0.458490000000     0.195310000000     0.633330000000     0.0450038  
H30      H      0.625360000000     0.328580000000     0.551120000000     0.0257617  
H31      H      0.660580000000     0.262040000000     0.601310000000     0.0553203  
H32      H      0.560350000000     0.314510000000     0.698260000000     0.0316833  
H33      H      0.506860000000     0.199370000000     0.695480000000     0.0349323  
H34      H      0.645150000000     0.280990000000     0.666640000000     0.0450873  
H35      H      0.692450000000     0.431850000000     0.592140000000     0.0969253  
H36      H      0.686520000000     0.398890000000     0.657240000000     0.0890721  
H37      H      0.614040000000     0.148820000000     0.791760000000     0.0322577  
H38      H      0.575670000000     0.135700000000     0.700330000000     0.0480502  
H39      H      0.661290000000     0.061440000000     0.799740000000     0.019313   
H40      H      0.617000000000     0.981700000000     0.727080000000     0.0488938  
H41      H      0.525300000000     0.110160000000     0.797270000000     0.0325866  
H42      H      0.500850000000     0.058760000000     0.712720000000     0.0529581  
H43      H      0.531730000000     0.956900000000     0.741130000000     0.055794   
H44      H      0.637750000000     0.980840000000     0.864440000000     0.0938615  
H45      H      0.552050000000     0.938910000000     0.848440000000     0.0971294  
H46      H      0.578010000000     0.115120000000     0.279040000000     0.0444664  
H47      H      0.490150000000     0.067760000000     0.208130000000     0.0274331  
H48      H      0.618960000000     0.017370000000     0.293580000000     0.022608   
H49      H      0.538750000000     0.917560000000     0.243300000000     0.0582606  
H50      H      0.500840000000     0.089190000000     0.311440000000     0.044803   
H51      H      0.438150000000     0.999710000000     0.251340000000     0.0345997  
H52      H      0.469680000000     0.913860000000     0.276030000000     0.0480161  
H53      H      0.615040000000     0.955820000000     0.367980000000     0.110907   
H54      H      0.529620000000     0.925100000000     0.377360000000     0.102335   
H55      H      0.560880000000     0.764030000000     0.879240000000     0.0327858  
H56      H      0.536740000000     0.846500000000     0.896730000000     0.0380496  
H57      H      0.446220000000     0.752670000000     0.938330000000     0.0128482  
H58      H      0.467660000000     0.807400000000     0.030820000000     0.0521879  
H59      H      0.620240000000     0.786230000000     0.936070000000     0.0492608  
H60      H      0.623250000000     0.884870000000     0.918890000000     0.0382573  
H61      H      0.529400000000     0.784970000000     0.049810000000     0.0765008  
H62      H      0.390810000000     0.642240000000     0.972320000000     0.0969366  
H63      H      0.374030000000     0.692440000000     0.006000000000     0.0791351  
H64      H      0.626050000000     0.376920000000     0.042200000000     0.0383017  
H65      H      0.559120000000     0.282070000000     0.983100000000     0.0344738  
H66      H      0.554190000000     0.339710000000     0.174070000000     0.0109691  
H67      H      0.621210000000     0.302800000000     0.136530000000     0.0468128  
H68      H      0.559360000000     0.380260000000     0.001880000000     0.0059889  
H69      H      0.485260000000     0.260680000000     0.018590000000     0.0373746  
H70      H      0.546080000000     0.229390000000     0.154640000000     0.0484834  
H71      H      0.438790000000     0.297780000000     0.147890000000     0.0935483  
H72      H      0.438430000000     0.242580000000     0.104250000000     0.092116   
H73      H      0.801190000000     0.352920000000     0.504750000000     0.035852   
H74      H      0.720580000000     0.248350000000     0.538120000000     0.0521245  
H75      H      0.874340000000     0.342180000000     0.431570000000     0.0212169  
H76      H      0.832730000000     0.227470000000     0.418500000000     0.0529981  
H77      H      0.820900000000     0.345610000000     0.576740000000     0.0452406  
H78      H      0.781800000000     0.231360000000     0.570290000000     0.0486176  
H79      H      0.859600000000     0.216490000000     0.487200000000     0.0487657  
H80      H      0.986530000000     0.374850000000     0.441380000000     0.111875   
H81      H      0.974930000000     0.315110000000     0.490970000000     0.102139   
H82      H      0.353540000000     0.759820000000     0.577180000000     0.0502838  
H83      H      0.454720000000     0.824240000000     0.628050000000     0.0219569  
H84      H      0.241550000000     0.807660000000     0.666960000000     0.0193842  
H85      H      0.332760000000     0.906190000000     0.654470000000     0.0493337  
H86      H      0.345170000000     0.711810000000     0.639600000000     0.0367957  
H87      H      0.415860000000     0.806810000000     0.692320000000     0.0294011  
H88      H      0.369300000000     0.889520000000     0.715610000000     0.0500368  
H89      H      0.234080000000     0.729140000000     0.733610000000     0.0940129  
H90      H      0.318520000000     0.761850000000     0.740200000000     0.0885318  
H91      H      0.798590000000     0.444020000000     0.563280000000     0.040232   
H92      H      0.752220000000     0.468270000000     0.480610000000     0.0403289  
H93      H      0.814770000000     0.534370000000     0.636130000000     0.0201817  
H94      H      0.801960000000     0.623700000000     0.592120000000     0.062154   
H95      H      0.858840000000     0.471720000000     0.511690000000     0.0485256  
H96      H      0.827590000000     0.544560000000     0.468180000000     0.0404325  
H97      H      0.862260000000     0.638230000000     0.542580000000     0.0455588  
H98      H      0.916890000000     0.606580000000     0.680880000000     0.0973512  
H99      H      0.944800000000     0.659910000000     0.623230000000     0.0953667  
H100     H      0.258160000000     0.444210000000     0.557700000000     0.0322059  
H101     H      0.345340000000     0.489560000000     0.630410000000     0.0405935  
H102     H      0.299860000000     0.506800000000     0.468990000000     0.0158157  
H103     H      0.412450000000     0.594670000000     0.477690000000     0.055959   
H104     H      0.234120000000     0.476710000000     0.610500000000     0.0482882  
H105     H      0.347440000000     0.566580000000     0.627380000000     0.0423523  
H106     H      0.393420000000     0.637850000000     0.526350000000     0.0493846  
H107     H      0.252640000000     0.565920000000     0.422960000000     0.100827   
H108     H      0.310940000000     0.638150000000     0.456750000000     0.0955434  
H109     H      0.948070000000     0.507520000000     0.835850000000     0.03638    
H110     H      0.968740000000     0.449410000000     0.768990000000     0.0475095  
H111     H      0.036560000000     0.629730000000     0.826260000000     0.0167242  
H112     H      0.123280000000     0.649700000000     0.764770000000     0.0478569  
H113     H      0.969760000000     0.454100000000     0.873590000000     0.044633   
H114     H      0.044820000000     0.462990000000     0.804750000000     0.0437768  
H115     H      0.146620000000     0.597950000000     0.805000000000     0.0504022  
H116     H      0.110160000000     0.693900000000     0.897280000000     0.107283   
H117     H      0.164770000000     0.664760000000     0.890230000000     0.10007    
H118     H      0.116420000000     0.498860000000     0.289490000000     0.0369425  
H119     H      0.070510000000     0.444550000000     0.374060000000     0.0412177  
H120     H      0.125610000000     0.620550000000     0.299360000000     0.01864    
H121     H      0.058480000000     0.619280000000     0.374620000000     0.060953   
H122     H      0.034270000000     0.433840000000     0.270900000000     0.0439467  
H123     H      0.990030000000     0.435730000000     0.356030000000     0.0393206  
H124     H      0.986690000000     0.546830000000     0.348870000000     0.0511513  
H125     H      0.079520000000     0.667790000000     0.240760000000     0.10846    
H126     H      0.996790000000     0.607480000000     0.252850000000     0.101313   
H127     H      0.814780000000     0.271050000000     0.875770000000     0.0332717  
H128     H      0.904470000000     0.298840000000     0.941010000000     0.0392056  
H129     H      0.765910000000     0.336030000000     0.894790000000     0.0171593  
H130     H      0.806390000000     0.396750000000     0.978610000000     0.0477613  
H131     H      0.793050000000     0.196430000000     0.912560000000     0.0358277  
H132     H      0.849750000000     0.250960000000     0.995630000000     0.0405691  
H133     H      0.771800000000     0.323390000000     0.021880000000     0.0517206  
H134     H      0.648630000000     0.283880000000     0.906920000000     0.0912097  
H135     H      0.661580000000     0.284250000000     0.978480000000     0.0952017  
H136     H      0.272950000000     0.815250000000     0.009090000000     0.0490662  
H137     H      0.386800000000     0.837270000000     0.013190000000     0.0432851  
H138     H      0.235660000000     0.839160000000     0.113570000000     0.0168852  
H139     H      0.341070000000     0.907020000000     0.153540000000     0.0505819  
H140     H      0.277500000000     0.741060000000     0.011850000000     0.0429859  
H141     H      0.374360000000     0.789460000000     0.076840000000     0.0368798  
H142     H      0.359670000000     0.842870000000     0.167760000000     0.0483057  
H143     H      0.183490000000     0.760870000000     0.181500000000     0.10077    
H144     H      0.247260000000     0.743610000000     0.191530000000     0.0960685  
H145     H      0.887200000000     0.624480000000     0.053400000000     0.0547917  
H146     H      0.804110000000     0.650630000000     0.078570000000     0.0457032  
H147     H      0.798860000000     0.442920000000     0.056040000000     0.0222263  
H148     H      0.793640000000     0.520260000000     0.990240000000     0.0448355  
H149     H      0.889160000000     0.630710000000     0.127580000000     0.0405211  
H150     H      0.767770000000     0.582660000000     0.125500000000     0.045805   
H151     H      0.710900000000     0.461330000000     0.007470000000     0.0474789  
H152     H      0.757180000000     0.422990000000     0.145260000000     0.0933328  
H153     H      0.725550000000     0.474120000000     0.134320000000     0.0974949  
H154     H      0.304870000000     0.544850000000     0.025140000000     0.0455247  
H155     H      0.333190000000     0.493290000000     0.105950000000     0.0468943  
H156     H      0.284820000000     0.673080000000     0.099790000000     0.0226732  
H157     H      0.392870000000     0.691090000000     0.098740000000     0.0537533  
H158     H      0.232520000000     0.480440000000     0.057580000000     0.0428877  
H159     H      0.288090000000     0.512770000000     0.150520000000     0.0442734  
H160     H      0.376900000000     0.669790000000     0.168910000000     0.0479545  
H161     H      0.267170000000     0.641190000000     0.192830000000     0.0840862  
H162     H      0.198500000000     0.584220000000     0.156820000000     0.104278   
H163     H      0.839820000000     0.762550000000     0.661910000000     0.0394119  
H164     H      0.851690000000     0.868100000000     0.678110000000     0.0317341  
H165     H      0.894340000000     0.783630000000     0.569520000000     0.0246722  
H166     H      0.901940000000     0.878060000000     0.509110000000    -0.00897147 
H167     H      0.756220000000     0.747400000000     0.661530000000     0.0477896  
H168     H      0.787640000000     0.855920000000     0.626280000000     0.0358114  
H169     H      0.817120000000     0.850010000000     0.521560000000     0.0376333  
H170     H      0.826900000000     0.702270000000     0.496770000000     0.103139   
H171     H      0.816160000000     0.763260000000     0.462860000000     0.102963   
H172     H      0.242440000000     0.306100000000     0.540130000000     0.0433813  
H173     H      0.326470000000     0.410710000000     0.523660000000     0.0423966  
H174     H      0.265820000000     0.230580000000     0.395700000000     0.0172829  
H175     H      0.372050000000     0.293990000000     0.429510000000     0.0430186  
H176     H      0.203630000000     0.329430000000     0.484400000000     0.0293118  
H177     H      0.306490000000     0.410480000000     0.451740000000     0.033687   
H178     H      0.370360000000     0.357280000000     0.386870000000     0.0502329  
H179     H      0.195670000000     0.267620000000     0.355850000000     0.0916427  
H180     H      0.246720000000     0.345700000000     0.378420000000     0.0886437  
H181     H      0.865180000000     0.122670000000     0.499910000000     0.0416155  
H182     H      0.807650000000     0.152070000000     0.560200000000     0.0464954  
H183     H      0.835040000000     0.959800000000     0.572320000000     0.0290614  
H184     H      0.755710000000     0.978840000000     0.527060000000     0.0550569  
H185     H      0.923750000000     0.164980000000     0.556210000000     0.0404613  
H186     H      0.837860000000     0.130080000000     0.621160000000     0.035797   
H187     H      0.731110000000     0.949770000000     0.597160000000     0.0475419  
H188     H      0.821880000000     0.969330000000     0.666070000000     0.083623   
H189     H      0.852670000000     0.052000000000     0.660610000000     0.0946456  
H190     H      0.310270000000     0.093730000000     0.449290000000     0.0384974  
H191     H      0.360540000000     0.194020000000     0.508150000000     0.0375046  
H192     H      0.259510000000     0.995420000000     0.509800000000     0.0222706  
H193     H      0.272570000000     0.020310000000     0.610430000000     0.0495214  
H194     H      0.398200000000     0.140350000000     0.443220000000     0.0415476  
H195     H      0.415440000000     0.170230000000     0.542710000000     0.0439029  
H196     H      0.361640000000     0.064140000000     0.606760000000     0.068152   
H197     H      0.300800000000     0.922060000000     0.513790000000     0.0946211  
H198     H      0.270460000000     0.921900000000     0.575880000000     0.0806964  
H199     H      0.175920000000     0.886760000000     0.512790000000     0.0370745  
H200     H      0.182080000000     0.805970000000     0.463540000000     0.0376363  
H201     H      0.982030000000     0.817340000000     0.498860000000     0.0266494  
H202     H      0.020500000000     0.761070000000     0.551230000000     0.0470347  
H203     H      0.177080000000     0.908160000000     0.439870000000     0.0315728  
H204     H      0.115210000000     0.792370000000     0.415380000000     0.0354065  
H205     H      0.978390000000     0.708520000000     0.493350000000     0.0493699  
H206     H      0.969950000000     0.823390000000     0.405990000000     0.0869451  
H207     H      0.030230000000     0.806750000000     0.391710000000     0.0878175  
H208     H      0.021320000000     0.262610000000     0.553360000000     0.0393375  
H209     H      0.141430000000     0.355340000000     0.545610000000     0.0443228  
H210     H      0.972970000000     0.238930000000     0.651810000000     0.0217323  
H211     H      0.044240000000     0.343530000000     0.694030000000     0.0589063  
H212     H      0.078690000000     0.237400000000     0.539270000000     0.0543504  
H213     H      0.163210000000     0.324390000000     0.607230000000     0.0403769  
H214     H      0.114850000000     0.332090000000     0.700600000000     0.0473923  
H215     H      0.976600000000     0.165230000000     0.718170000000     0.101177   
H216     H      0.060780000000     0.215910000000     0.734110000000     0.0884599  
H217     H      0.149310000000     0.088900000000     0.851330000000     0.0368636  
H218     H      0.151980000000     0.144660000000     0.766880000000     0.0421866  
H219     H      0.082150000000     0.960040000000     0.830860000000     0.0229123  
H220     H      0.037630000000     0.940780000000     0.736220000000     0.0534378  
H221     H      0.099510000000     0.126220000000     0.858440000000     0.0177243  
H222     H      0.063430000000     0.113740000000     0.763860000000     0.0467618  
H223     H      0.986670000000     0.976560000000     0.745920000000     0.0595815  
H224     H      0.984020000000     0.885170000000     0.872180000000     0.0910525  
H225     H      0.936250000000     0.911780000000     0.834810000000     0.0877684  
H226     H      0.028480000000     0.917880000000     0.311380000000     0.0307402  
H227     H      0.101710000000     0.998390000000     0.243870000000     0.0427741  
H228     H      0.916250000000     0.903960000000     0.319370000000     0.0134719  
H229     H      0.901270000000     0.952120000000     0.236860000000     0.0539794  
H230     H      0.100370000000     0.983840000000     0.343930000000     0.0344228  
H231     H      0.096560000000     0.063320000000     0.275430000000     0.0420626  
H232     H      0.952320000000     0.034420000000     0.260700000000     0.0518456  
H233     H      0.877350000000     0.943980000000     0.384000000000     0.0952064  
H234     H      0.919670000000     0.023920000000     0.357530000000     0.0997845  
H235     H      0.835320000000     0.799740000000     0.022500000000     0.0498762  
H236     H      0.735030000000     0.712370000000     0.994180000000    -0.0167086  
H237     H      0.796370000000     0.942140000000     0.997060000000     0.0192724  
H238     H      0.741340000000     0.867410000000     0.065920000000     0.0367078  
H239     H      0.833330000000     0.795020000000     0.947730000000     0.0300666  
H240     H      0.713370000000     0.755520000000     0.943740000000     0.0279869  
H241     H      0.675510000000     0.847920000000     0.014970000000     0.055068   
H242     H      0.775500000000     0.933460000000     0.905030000000     0.088617   
H243     H      0.737510000000     0.850540000000     0.903950000000     0.086166   
H244     H      0.260880000000     0.265660000000     0.976440000000     0.0437884  
H245     H      0.379660000000     0.312800000000     0.973110000000     0.0350416  
H246     H      0.227490000000     0.305300000000     0.074150000000     0.0185244  
H247     H      0.330100000000     0.389590000000     0.106030000000     0.0384416  
H248     H      0.282790000000     0.203670000000     0.991910000000     0.0335887  
H249     H      0.386090000000     0.282000000000     0.041420000000     0.0377529  
H250     H      0.363680000000     0.337880000000     0.125400000000     0.0412636  
H251     H      0.190340000000     0.243120000000     0.153600000000     0.0788164  
H252     H      0.261110000000     0.237380000000     0.166280000000     0.0921359  
H253     H      0.790600000000     0.026670000000     0.044310000000     0.0524547  
H254     H      0.831340000000     0.963530000000     0.099170000000    -0.00710514 
H255     H      0.786560000000     0.130980000000     0.161730000000     0.0216922  
H256     H      0.891960000000     0.146650000000     0.170190000000     0.0433206  
H257     H      0.721290000000     0.956630000000     0.075960000000     0.0416846  
H258     H      0.790360000000     0.963880000000     0.158390000000     0.0300001  
H259     H      0.862150000000     0.079590000000     0.217390000000     0.0481058  
H260     H      0.697690000000     0.047940000000     0.207890000000     0.105132   
H261     H      0.727320000000     0.994950000000     0.207580000000     0.0944624  
H262     H      0.310350000000     0.137520000000     0.951020000000     0.0318554  
H263     H      0.347710000000     0.070100000000     0.912750000000     0.0380088  
H264     H      0.315210000000     0.118100000000     0.060480000000     0.0190946  
H265     H      0.335690000000     0.027300000000     0.087030000000     0.0549175  
H266     H      0.239680000000     0.074100000000     0.913340000000     0.0373249  
H267     H      0.275950000000     0.995250000000     0.934540000000     0.0416195  
H268     H      0.266530000000     0.972570000000     0.043170000000     0.047903   
H269     H      0.216310000000     0.075410000000     0.111680000000     0.116915   
H270     H      0.199190000000     0.995300000000     0.103830000000     0.107885   
H271     H      0.095800000000     0.846780000000     0.103130000000     0.0398035  
H272     H      0.022490000000     0.843910000000     0.174790000000     0.0349085  
H273     H      0.037790000000     0.814090000000     0.007860000000     0.00493201 
H274     H      0.930920000000     0.804910000000     0.012110000000     0.0420203  
H275     H      0.081150000000     0.785770000000     0.155000000000     0.0448782  
H276     H      0.964070000000     0.759220000000     0.161150000000     0.0406057  
H277     H      0.899550000000     0.735440000000     0.057600000000     0.0475023  
H278     H      0.936530000000     0.724450000000     0.957610000000     0.077878   
H279     H      0.006900000000     0.720100000000     0.961950000000     0.0997433  
H280     H      0.107890000000     0.291000000000     0.116530000000     0.0415298  
H281     H      0.138180000000     0.305850000000     0.016820000000     0.0360841  
H282     H      0.986200000000     0.220400000000     0.122970000000     0.0228495  
H283     H      0.927110000000     0.182600000000     0.030220000000     0.05368    
H284     H      0.143440000000     0.374220000000     0.095480000000     0.0401586  
H285     H      0.087440000000     0.341920000000     0.000860000000     0.0298235  
H286     H      0.958690000000     0.266270000000     0.008340000000     0.0483392  
H287     H      0.920580000000     0.265210000000     0.154180000000     0.0941309  
H288     H      0.896020000000     0.271420000000     0.085750000000     0.0968883  
N1       N      0.554870000000     0.564670000000     0.731970000000    -0.182947   
N2       N      0.572270000000     0.561620000000     0.849270000000    -0.173212   
N3       N      0.465690000000     0.447560000000     0.735300000000    -0.199457   
N4       N      0.619560000000     0.595090000000     0.233520000000    -0.187222   
N5       N      0.617720000000     0.574990000000     0.350450000000    -0.171461   
N6       N      0.654030000000     0.711110000000     0.244890000000    -0.199479   
N7       N      0.593440000000     0.865900000000     0.459590000000    -0.183443   
N8       N      0.596860000000     0.751440000000     0.479690000000    -0.153687   
N9       N      0.480660000000     0.800720000000     0.416790000000    -0.200356   
N10      N      0.566990000000     0.334960000000     0.612050000000    -0.20066    
N11      N      0.557310000000     0.216340000000     0.621330000000    -0.155876   
N12      N      0.687360000000     0.391270000000     0.615210000000    -0.200783   
N13      N      0.567940000000     0.050130000000     0.819060000000    -0.208463   
N14      N      0.587060000000     0.051650000000     0.705570000000    -0.176186   
N15      N      0.599930000000     0.966320000000     0.833330000000    -0.20079    
N16      N      0.547540000000     0.031880000000     0.331970000000    -0.191241   
N17      N      0.518270000000     0.994230000000     0.221430000000    -0.163008   
N18      N      0.567380000000     0.939320000000     0.349700000000    -0.202507   
N19      N      0.518110000000     0.723750000000     0.956400000000    -0.182731   
N20      N      0.554620000000     0.854820000000     0.983690000000    -0.168769   
N21      N      0.411080000000     0.680970000000     0.000000000000    -0.185237   
N22      N      0.546330000000     0.362730000000     0.089050000000    -0.195647   
N23      N      0.558810000000     0.250540000000     0.067800000000    -0.176256   
N24      N      0.460960000000     0.270430000000     0.139610000000    -0.196956   
N25      N      0.885760000000     0.342600000000     0.519380000000    -0.169671   
N26      N      0.773160000000     0.224390000000     0.482620000000    -0.153733   
N27      N      0.954640000000     0.327410000000     0.455860000000    -0.200539   
N28      N      0.285950000000     0.757310000000     0.633750000000    -0.196132   
N29      N      0.399820000000     0.872880000000     0.641080000000    -0.173973   
N30      N      0.280280000000     0.772270000000     0.731000000000    -0.196727   
N31      N      0.881750000000     0.538670000000     0.578520000000    -0.190627   
N32      N      0.772170000000     0.547800000000     0.532050000000    -0.175366   
N33      N      0.903900000000     0.624710000000     0.644920000000    -0.198424   
N34      N      0.262020000000     0.533220000000     0.533690000000    -0.193314   
N35      N      0.388950000000     0.551020000000     0.558630000000    -0.176479   
N36      N      0.299480000000     0.592010000000     0.443560000000    -0.198306   
N37      N      0.043960000000     0.557540000000     0.876300000000    -0.188028   
N38      N      0.053040000000     0.545770000000     0.760770000000    -0.168147   
N39      N      0.129280000000     0.674690000000     0.870640000000    -0.199964   
N40      N      0.049220000000     0.531530000000     0.263690000000    -0.186425   
N41      N      0.063620000000     0.530390000000     0.381490000000    -0.169895   
N42      N      0.046090000000     0.634080000000     0.268880000000    -0.19981    
N43      N      0.738590000000     0.243350000000     0.931740000000    -0.195468   
N44      N      0.857310000000     0.343060000000     0.979600000000    -0.179546   
N45      N      0.681900000000     0.306150000000     0.940730000000    -0.200706   
N46      N      0.246720000000     0.762350000000     0.085590000000    -0.16973    
N47      N      0.372320000000     0.876800000000     0.085130000000    -0.177706   
N48      N      0.235040000000     0.779900000000     0.181530000000    -0.199065   
N49      N      0.849170000000     0.534270000000     0.097400000000    -0.200956   
N50      N      0.749900000000     0.556880000000     0.040600000000    -0.17757    
N51      N      0.738290000000     0.443590000000     0.115410000000    -0.195864   
N52      N      0.252370000000     0.577930000000     0.069660000000    -0.189663   
N53      N      0.375840000000     0.596260000000     0.122220000000    -0.154697   
N54      N      0.249700000000     0.603220000000     0.164620000000    -0.192326   
N55      N      0.791790000000     0.745580000000     0.582010000000    -0.170362   
N56      N      0.880130000000     0.880830000000     0.594170000000    -0.17665    
N57      N      0.843450000000     0.752230000000     0.493110000000    -0.197866   
N58      N      0.233800000000     0.263500000000     0.461540000000    -0.193266   
N59      N      0.361620000000     0.363480000000     0.472760000000    -0.177607   
N60      N      0.244980000000     0.303030000000     0.366620000000    -0.196826   
N61      N      0.886170000000     0.062600000000     0.553840000000    -0.181767   
N62      N      0.759590000000     0.049320000000     0.577550000000    -0.170308   
N63      N      0.853760000000     0.012500000000     0.644670000000    -0.180774   
N64      N      0.362000000000     0.052130000000     0.493660000000    -0.189887   
N65      N      0.313780000000     0.109650000000     0.562500000000    -0.182796   
N66      N      0.308590000000     0.949690000000     0.548780000000    -0.182875   
N67      N      0.085080000000     0.873920000000     0.478250000000    -0.199577   
N68      N      0.084200000000     0.755570000000     0.496360000000    -0.18653    
N69      N      0.992840000000     0.796300000000     0.418750000000    -0.193596   
N70      N      0.046590000000     0.221180000000     0.624070000000    -0.171408   
N71      N      0.095020000000     0.356560000000     0.619390000000    -0.154465   
N72      N      0.016100000000     0.213650000000     0.720270000000    -0.197801   
N73      N      0.045470000000     0.021620000000     0.851870000000    -0.192492   
N74      N      0.089980000000     0.044760000000     0.742430000000    -0.174754   
N75      N      0.977170000000     0.904760000000     0.834360000000    -0.199066   
N76      N      0.007230000000     0.983790000000     0.349420000000    -0.20787    
N77      N      0.007110000000     0.992770000000     0.234010000000    -0.173928   
N78      N      0.896560000000     0.974000000000     0.348970000000    -0.198754   
N79      N      0.829630000000     0.875490000000     0.978350000000    -0.188691   
N80      N      0.708680000000     0.779190000000     0.026510000000    -0.174833   
N81      N      0.744830000000     0.890090000000     0.926740000000    -0.197363   
N82      N      0.250860000000     0.231790000000     0.060430000000    -0.193813   
N83      N      0.363170000000     0.357880000000     0.039570000000    -0.178086   
N84      N      0.242140000000     0.267000000000     0.150620000000    -0.197765   
N85      N      0.749240000000     0.048890000000     0.109720000000    -0.190822   
N86      N      0.871030000000     0.056770000000     0.136620000000    -0.175273   
N87      N      0.740650000000     0.044170000000     0.209040000000    -0.197328   
N88      N      0.235680000000     0.065330000000     0.001810000000    -0.187421   
N89      N      0.346780000000     0.046730000000     0.999380000000    -0.174527   
N90      N      0.235210000000     0.045200000000     0.103720000000    -0.201712   
N91      N      0.029550000000     0.750120000000     0.074890000000    -0.165008   
N92      N      0.967940000000     0.824070000000     0.096590000000    -0.172817   
N93      N      0.968990000000     0.717150000000     0.985020000000    -0.188587   
N94      N      0.036380000000     0.321390000000     0.102910000000    -0.199879   
N95      N      0.032520000000     0.240100000000     0.019440000000    -0.174695   
N96      N      0.914910000000     0.249120000000     0.113690000000    -0.199331   
O1       O      0.071330000000     0.183230000000     0.070430000000    -0.448892   
O2       O      0.941890000000     0.909200000000     0.987960000000    -0.411007   
O3       O      0.015090000000     0.050870000000     0.927470000000    -0.447958   
O4       O      0.930300000000     0.060660000000     0.065110000000    -0.441586   
O5       O      0.051390000000     0.983800000000     0.937830000000    -0.457813   
O6       O      0.984100000000     0.100130000000     0.140270000000    -0.409251   
O7       O      0.909910000000     0.978480000000     0.996170000000    -0.436307   
O8       O      0.024880000000     0.147110000000     0.987500000000    -0.410603   
O9       O      0.067570000000     0.045430000000     0.158990000000    -0.43809    
O10      O      0.130640000000     0.010100000000     0.032880000000    -0.447344   
O11      O      0.151520000000     0.176880000000     0.015110000000    -0.485976   
O12      O      0.927820000000     0.895110000000     0.081160000000    -0.406278   
O13      O      0.032360000000     0.933150000000     0.088270000000    -0.441223   
O14      O      0.161010000000     0.140960000000     0.097390000000    -0.448235   
O15      O      0.958350000000     0.988810000000     0.148760000000    -0.439789   
O16      O      0.150170000000     0.082910000000     0.966740000000    -0.411949   
O17      O      0.034070000000     0.043780000000     0.044450000000    -0.519678   
O18      O      0.085680000000     0.032860000000     0.417730000000    -0.536136   
O19      O      0.023170000000     0.117040000000     0.653650000000    -0.380366   
O20      O      0.933260000000     0.007330000000     0.523000000000    -0.450597   
O21      O      0.193510000000     0.190480000000     0.532550000000    -0.461791   
O22      O      0.997940000000     0.107050000000     0.544900000000    -0.403167   
O23      O      0.164200000000     0.153070000000     0.448870000000    -0.46648    
O24      O      0.109410000000     0.178310000000     0.602230000000    -0.462661   
O25      O      0.985710000000     0.003240000000     0.435280000000    -0.487041   
O26      O      0.231930000000     0.109470000000     0.508620000000    -0.511095   
O27      O      0.951370000000     0.987640000000     0.617040000000    -0.349213   
O28      O      0.033290000000     0.930660000000     0.489530000000    -0.495646   
O29      O      0.148460000000     0.111430000000     0.671390000000    -0.454435   
O30      O      0.063730000000     0.023500000000     0.651750000000    -0.425961   
O31      O      0.142230000000     0.985840000000     0.487940000000    -0.47054    
O32      O      0.219850000000     0.101050000000     0.596480000000    -0.436287   
O33      O      0.988850000000     0.936480000000     0.577850000000    -0.4423     
O34      O      0.083150000000     0.054960000000     0.539310000000    -0.515409   
O35      O      0.968780000000     0.394670000000     0.005470000000    -0.458769   
O36      O      0.058000000000     0.683610000000     0.126030000000    -0.382334   
O37      O      0.899530000000     0.476510000000     0.127120000000    -0.486956   
O38      O      0.080270000000     0.602670000000     0.963610000000    -0.377436   
O39      O      0.959990000000     0.574780000000     0.099160000000    -0.438686   
O40      O      0.047190000000     0.499170000000     0.952000000000    -0.475827   
O41      O      0.033610000000     0.660780000000     0.037830000000    -0.364631   
O42      O      0.902560000000     0.413600000000     0.050450000000    -0.481057   
O43      O      0.155710000000     0.515890000000     0.017370000000    -0.458198   
O44      O      0.049760000000     0.579250000000     0.178820000000    -0.399143   
O45      O      0.982390000000     0.379140000000     0.112160000000    -0.474043   
O46      O      0.156600000000     0.702170000000     0.028720000000    -0.375392   
O47      O      0.153470000000     0.666370000000     0.114590000000    -0.391878   
O48      O      0.079990000000     0.428790000000     0.081190000000    -0.489639   
O49      O      0.168590000000     0.601310000000     0.052930000000    -0.404895   
O50      O      0.003150000000     0.471630000000     0.184930000000    -0.451345   
O51      O      0.035600000000     0.523240000000     0.069090000000    -0.493484   
O52      O      0.988100000000     0.437280000000     0.518040000000    -0.411503   
O53      O      0.060170000000     0.677380000000     0.563030000000    -0.500769   
O54      O      0.959350000000     0.511060000000     0.563600000000    -0.407997   
O55      O      0.104450000000     0.597590000000     0.454680000000    -0.480903   
O56      O      0.984230000000     0.581580000000     0.626020000000    -0.456941   
O57      O      0.096340000000     0.501920000000     0.466280000000    -0.36642    
O58      O      0.139800000000     0.700060000000     0.508350000000    -0.500178   
O59      O      0.943650000000     0.398610000000     0.598320000000    -0.360423   
O60      O      0.173670000000     0.526250000000     0.574670000000    -0.41125    
O61      O      0.099240000000     0.595710000000     0.680510000000    -0.475136   
O62      O      0.070770000000     0.440050000000     0.625880000000    -0.393139   
O63      O      0.229900000000     0.680380000000     0.568060000000    -0.489646   
O64      O      0.172230000000     0.699110000000     0.624500000000    -0.47811    
O65      O      0.080610000000     0.410900000000     0.544050000000    -0.387047   
O66      O      0.207080000000     0.587070000000     0.502750000000    -0.472741   
O67      O      0.010800000000     0.498830000000     0.673740000000    -0.3532     
O68      O      0.091690000000     0.573310000000     0.568220000000    -0.536686   
O69      O      0.444630000000     0.082780000000     0.049760000000    -0.43642    
O70      O      0.589360000000     0.962090000000     0.962620000000    -0.469609   
O71      O      0.521030000000     0.059430000000     0.895060000000    -0.487503   
O72      O      0.474450000000     0.940280000000     0.050680000000    -0.446358   
O73      O      0.614390000000     0.061130000000     0.904000000000    -0.552204   
O74      O      0.440200000000     0.985300000000     0.102490000000    -0.460253   
O75      O      0.574280000000     0.932130000000     0.049090000000    -0.385122   
O76      O      0.441420000000     0.057890000000     0.964220000000    -0.448393   
O77      O      0.565140000000     0.060220000000     0.146350000000    -0.464634   
O78      O      0.697840000000     0.144180000000     0.975990000000    -0.47659    
O79      O      0.544460000000     0.174910000000     0.006010000000    -0.472532   
O80      O      0.656190000000     0.060540000000     0.105730000000    -0.402219   
O81      O      0.687900000000     0.042160000000     0.031730000000    -0.511014   
O82      O      0.574690000000     0.163910000000     0.090590000000    -0.429045   
O83      O      0.546330000000     0.959350000000     0.146350000000    -0.396005   
O84      O      0.626930000000     0.173310000000     0.940320000000    -0.465461   
O85      O      0.562690000000     0.057820000000     0.015240000000    -0.531772   
O86      O      0.432260000000     0.016460000000     0.525630000000    -0.443919   
O87      O      0.641360000000     0.978130000000     0.474110000000    -0.378166   
O88      O      0.546660000000     0.088950000000     0.406070000000    -0.42064    
O89      O      0.459270000000     0.909530000000     0.564270000000    -0.451163   
O90      O      0.600120000000     0.037430000000     0.415500000000    -0.470686   
O91      O      0.457510000000     0.981170000000     0.615390000000    -0.39481    
O92      O      0.539100000000     0.909710000000     0.497230000000    -0.457987   
O93      O      0.472810000000     0.101900000000     0.475720000000    -0.438261   
O94      O      0.589290000000     0.086630000000     0.616520000000    -0.440629   
O95      O      0.720550000000     0.116500000000     0.454510000000    -0.398455   
O96      O      0.577230000000     0.166670000000     0.551790000000    -0.424399   
O97      O      0.646510000000     0.981590000000     0.571290000000    -0.453553   
O98      O      0.685290000000     0.084340000000     0.556670000000    -0.438204   
O99      O      0.488500000000     0.107310000000     0.602280000000    -0.419185   
O100     O      0.565870000000     0.986460000000     0.633650000000    -0.478885   
O101     O      0.660180000000     0.159780000000     0.477190000000    -0.469791   
O102     O      0.551570000000     0.024840000000     0.518960000000    -0.608334   
O103     O      0.468080000000     0.424680000000     0.010750000000    -0.445276   
O104     O      0.492920000000     0.637370000000     0.017380000000    -0.418565   
O105     O      0.450030000000     0.559980000000     0.115760000000    -0.499286   
O106     O      0.624200000000     0.606780000000     0.932830000000    -0.453344   
O107     O      0.490920000000     0.665720000000     0.119970000000    -0.381945   
O108     O      0.536270000000     0.509310000000     0.932730000000    -0.459032   
O109     O      0.586280000000     0.680540000000     0.975560000000    -0.439502   
O110     O      0.419620000000     0.467290000000     0.050150000000    -0.461699   
O111     O      0.655360000000     0.528500000000     0.984780000000    -0.449054   
O112     O      0.586990000000     0.636080000000     0.155640000000    -0.406135   
O113     O      0.500200000000     0.424090000000     0.110480000000    -0.412078   
O114     O      0.663490000000     0.681370000000     0.071800000000    -0.475137   
O115     O      0.610520000000     0.728830000000     0.071020000000    -0.364094   
O116     O      0.591130000000     0.469620000000     0.069840000000    -0.467526   
O117     O      0.693540000000     0.611060000000     0.036180000000    -0.474098   
O118     O      0.544340000000     0.531710000000     0.166500000000    -0.470953   
O119     O      0.560910000000     0.566820000000     0.045650000000    -0.516703   
O120     O      0.474850000000     0.406740000000     0.474210000000    -0.458064   
O121     O      0.599120000000     0.699320000000     0.561050000000    -0.351858   
O122     O      0.452830000000     0.514030000000     0.603550000000    -0.466198   
O123     O      0.655120000000     0.599550000000     0.441330000000    -0.380283   
O124     O      0.494510000000     0.583160000000     0.535820000000    -0.389872   
O125     O      0.565790000000     0.506880000000     0.422860000000    -0.465414   
O126     O      0.593780000000     0.653400000000     0.482470000000    -0.400803   
O127     O      0.429720000000     0.415350000000     0.547460000000    -0.485839   
O128     O      0.668080000000     0.501580000000     0.487070000000    -0.436674   
O129     O      0.564790000000     0.603910000000     0.641640000000    -0.353688   
O130     O      0.523210000000     0.401940000000     0.610440000000    -0.492135   
O131     O      0.717000000000     0.691170000000     0.510440000000    -0.382761   
O132     O      0.682890000000     0.659630000000     0.593410000000    -0.385224   
O133     O      0.574630000000     0.401930000000     0.538840000000    -0.491488   
O134     O      0.696420000000     0.577050000000     0.547340000000    -0.410794   
O135     O      0.557020000000     0.509180000000     0.659160000000    -0.460905   
O136     O      0.566080000000     0.522390000000     0.541750000000    -0.516031   


