data_structure

_audit_creation_method RASPA-1.0
_audit_creation_date 2023-6-4
_audit_author_name 'Poobodin Mano'

_cell_length_a    31.5235
_cell_length_b    31.8871
_cell_length_c    32.1063
_cell_angle_alpha 87.1346
_cell_angle_beta  93.82
_cell_angle_gamma 120.436
_cell_volume      27758.9

_symmetry_cell_setting          triclinic
_symmetry_space_group_name_Hall 'P 1'
_symmetry_space_group_name_H-M  'P 1'
_symmetry_Int_Tables_number     1

_symmetry_equiv_pos_as_xyz 'x,y,z'

loop_
_atom_site_label
_atom_site_type_symbol
_atom_site_fract_x
_atom_site_fract_y
_atom_site_fract_z
_atom_site_charge
C1       C      0.065160000000     0.138420000000     0.031190000000     0.401207   
C2       C      0.941000000000     0.918430000000     0.038700000000     0.487217   
C3       C      0.014660000000     0.977610000000     0.950470000000     0.476019   
C4       C      0.976610000000     0.043690000000     0.085510000000     0.491815   
C5       C      0.078270000000     0.041850000000     0.150720000000     0.471538   
C6       C      0.137580000000     0.012180000000     0.994120000000     0.460589   
C7       C      0.164410000000     0.120230000000     0.036530000000     0.479373   
C8       C      0.031530000000     0.905370000000     0.098080000000     0.477847   
C9       C      0.075900000000     0.059460000000     0.448280000000     0.489497   
C10      C      0.010790000000     0.126200000000     0.621290000000     0.42345    
C11      C      0.965990000000     0.079170000000     0.514950000000     0.484547   
C12      C      0.145370000000     0.158760000000     0.523700000000     0.455311   
C13      C      0.170360000000     0.089220000000     0.597660000000     0.457258   
C14      C      0.933800000000     0.965950000000     0.565900000000     0.4762     
C15      C      0.054170000000     0.954980000000     0.510620000000     0.48044    
C16      C      0.048910000000     0.040210000000     0.654290000000     0.477733   
C17      C      0.960830000000     0.426810000000     0.972970000000     0.468562   
C18      C      0.058040000000     0.630330000000     0.043430000000     0.472699   
C19      C      0.968650000000     0.541670000000     0.076380000000     0.462099   
C20      C      0.061500000000     0.530460000000     0.928090000000     0.460718   
C21      C      0.158640000000     0.544900000000     0.000930000000     0.483603   
C22      C      0.020160000000     0.473640000000     0.132060000000     0.44814    
C23      C      0.016930000000     0.404790000000     0.058210000000     0.478887   
C24      C      0.164510000000     0.620800000000     0.066620000000     0.466739   
C25      C      0.929880000000     0.463600000000     0.506680000000     0.467769   
C26      C      0.064280000000     0.658280000000     0.475220000000     0.465216   
C27      C      0.948930000000     0.554840000000     0.576220000000     0.461703   
C28      C      0.054350000000     0.525850000000     0.431140000000     0.46978    
C29      C      0.125130000000     0.521270000000     0.526920000000     0.488374   
C30      C      0.063740000000     0.574880000000     0.628590000000     0.456149   
C31      C      0.999160000000     0.413510000000     0.551100000000     0.420362   
C32      C      0.148190000000     0.658240000000     0.556650000000     0.477706   
C33      C      0.449960000000     0.036960000000     0.985880000000     0.473935   
C34      C      0.545060000000     0.923840000000     0.014910000000     0.481303   
C35      C      0.544010000000     0.059620000000     0.932380000000     0.455365   
C36      C      0.457700000000     0.941060000000     0.097450000000     0.490828   
C37      C      0.558050000000     0.058620000000     0.136970000000     0.528651   
C38      C      0.647070000000     0.124690000000     0.008270000000     0.454072   
C39      C      0.490820000000     0.109000000000     0.071650000000     0.38915    
C40      C      0.656640000000     0.028850000000     0.050880000000     0.485965   
C41      C      0.455310000000     0.101930000000     0.488830000000     0.454388   
C42      C      0.526320000000     0.959520000000     0.506260000000     0.483846   
C43      C      0.530210000000     0.100220000000     0.424610000000     0.461302   
C44      C      0.452110000000     0.961770000000     0.564440000000     0.439353   
C45      C      0.528670000000     0.065590000000     0.628570000000     0.455814   
C46      C      0.643450000000     0.157320000000     0.483590000000     0.440559   
C47      C      0.524750000000     0.150180000000     0.581110000000     0.455249   
C48      C      0.645870000000     0.061530000000     0.528880000000     0.469294   
C49      C      0.462490000000     0.440560000000     0.039690000000     0.477203   
C50      C      0.544470000000     0.622630000000     0.032980000000     0.469536   
C51      C      0.423380000000     0.504830000000     0.121360000000     0.46411    
C52      C      0.604630000000     0.537300000000     0.994700000000     0.516176   
C53      C      0.670130000000     0.542020000000     0.096560000000     0.543095   
C54      C      0.535480000000     0.540360000000     0.186530000000     0.474554   
C55      C      0.508610000000     0.414080000000     0.130590000000     0.45145    
C56      C      0.630770000000     0.658060000000     0.117790000000     0.456623   
C57      C      0.452300000000     0.457330000000     0.542600000000     0.47305    
C58      C      0.537960000000     0.671470000000     0.555120000000     0.51072    
C59      C      0.425550000000     0.532690000000     0.635500000000     0.528095   
C60      C      0.552160000000     0.560240000000     0.490520000000     0.472438   
C61      C      0.645250000000     0.569700000000     0.571770000000     0.472714   
C62      C      0.541510000000     0.554890000000     0.692920000000     0.491046   
C63      C      0.502950000000     0.433280000000     0.634310000000     0.397411   
C64      C      0.635390000000     0.675320000000     0.626950000000     0.510031   
C65      C      0.637770000000     0.579410000000     0.929440000000     0.0614436  
C66      C      0.572010000000     0.497300000000     0.930330000000     0.075459   
C67      C      0.630700000000     0.581670000000     0.885880000000    -0.067538   
C68      C      0.567310000000     0.506780000000     0.791800000000    -0.0826345  
C69      C      0.564730000000     0.498670000000     0.886940000000    -0.0807128  
C70      C      0.582370000000     0.545820000000     0.818580000000     0.0422326  
C71      C      0.593000000000     0.541760000000     0.864250000000     0.0337864  
C72      C      0.554970000000     0.510790000000     0.749620000000     0.0848462  
C73      C      0.573110000000     0.591470000000     0.759310000000     0.082208   
C74      C      0.585670000000     0.588690000000     0.801530000000    -0.0854522  
C75      C      0.530860000000     0.579370000000     0.420650000000     0.0641673  
C76      C      0.552390000000     0.517970000000     0.432380000000     0.0734321  
C77      C      0.533150000000     0.576180000000     0.377590000000    -0.0725123  
C78      C      0.572100000000     0.585700000000     0.292580000000    -0.0862618  
C79      C      0.553460000000     0.513460000000     0.389530000000    -0.0832588  
C80      C      0.549030000000     0.542410000000     0.316110000000     0.0410794  
C81      C      0.545600000000     0.544080000000     0.361750000000     0.034913   
C82      C      0.569630000000     0.584220000000     0.249180000000     0.081164   
C83      C      0.525110000000     0.497940000000     0.251730000000     0.0805213  
C84      C      0.526910000000     0.498100000000     0.295360000000    -0.0845487  
C85      C      0.562130000000     0.744750000000     0.511130000000     0.0722621  
C86      C      0.481380000000     0.697760000000     0.536520000000     0.0813509  
C87      C      0.550090000000     0.779710000000     0.495190000000    -0.067522   
C88      C      0.499730000000     0.843850000000     0.463120000000    -0.0810092  
C89      C      0.469410000000     0.732410000000     0.521490000000    -0.0817888  
C90      C      0.499340000000     0.818500000000     0.500320000000     0.0438403  
C91      C      0.504500000000     0.774770000000     0.501990000000     0.0372069  
C92      C      0.503450000000     0.889740000000     0.464980000000     0.0907419  
C93      C      0.506490000000     0.884670000000     0.538940000000     0.0886076  
C94      C      0.500420000000     0.838520000000     0.538230000000    -0.0884825  
C95      C      0.467330000000     0.347510000000     0.656140000000     0.0506647  
C96      C      0.549450000000     0.394430000000     0.634900000000     0.0695143  
C97      C      0.470950000000     0.305140000000     0.655160000000    -0.0697512  
C98      C      0.473620000000     0.218950000000     0.622650000000    -0.0871164  
C99      C      0.553650000000     0.353330000000     0.633290000000    -0.0823361  
C100     C      0.516280000000     0.262610000000     0.633960000000     0.0373875  
C101     C      0.513770000000     0.307360000000     0.641960000000     0.0301457  
C102     C      0.477250000000     0.180370000000     0.608200000000     0.0733318  
C103     C      0.564160000000     0.225670000000     0.616660000000     0.0712616  
C104     C      0.561780000000     0.264250000000     0.633050000000    -0.0857959  
C105     C      0.505880000000     0.023220000000     0.865090000000     0.056732   
C106     C      0.562660000000     0.108290000000     0.871080000000     0.0714935  
C107     C      0.503810000000     0.029250000000     0.821610000000    -0.0696478  
C108     C      0.575680000000     0.099190000000     0.736260000000    -0.0868295  
C109     C      0.561250000000     0.114690000000     0.827870000000    -0.0823257  
C110     C      0.531680000000     0.079460000000     0.756850000000     0.0396662  
C111     C      0.531900000000     0.074810000000     0.802800000000     0.0324691  
C112     C      0.574190000000     0.095780000000     0.692960000000     0.0747895  
C113     C      0.486980000000     0.057440000000     0.690040000000     0.0767984  
C114     C      0.487090000000     0.059600000000     0.733280000000    -0.0878827  
C115     C      0.499470000000     0.067330000000     0.356150000000     0.0598166  
C116     C      0.567090000000     0.148000000000     0.364550000000     0.081358   
C117     C      0.510320000000     0.068670000000     0.314440000000    -0.0660246  
C118     C      0.588670000000     0.082810000000     0.248120000000    -0.0850847  
C119     C      0.578190000000     0.150330000000     0.322740000000    -0.076388   
C120     C      0.564060000000     0.107680000000     0.255460000000     0.0458425  
C121     C      0.550860000000     0.109490000000     0.298110000000     0.0356959  
C122     C      0.589850000000     0.069860000000     0.207480000000     0.0871703  
C123     C      0.546040000000     0.108790000000     0.181490000000     0.0894158  
C124     C      0.544310000000     0.122450000000     0.221660000000    -0.0862634  
C125     C      0.553480000000     0.868780000000     0.970560000000     0.0635604  
C126     C      0.518800000000     0.843800000000     0.037290000000     0.0766712  
C127     C      0.548590000000     0.822740000000     0.966290000000    -0.065722   
C128     C      0.574330000000     0.742050000000     0.989950000000    -0.0858749  
C129     C      0.513660000000     0.798080000000     0.033410000000    -0.0819757  
C130     C      0.530400000000     0.741350000000     0.996430000000     0.0393098  
C131     C      0.529500000000     0.787410000000     0.997970000000     0.0325054  
C132     C      0.577330000000     0.699980000000     0.998040000000     0.0747311  
C133     C      0.493020000000     0.655560000000     0.013500000000     0.0748832  
C134     C      0.488870000000     0.696910000000     0.006280000000    -0.0873137  
C135     C      0.446770000000     0.139980000000     0.109420000000     0.0482627  
C136     C      0.522070000000     0.192770000000     0.077130000000     0.0690246  
C137     C      0.445750000000     0.181380000000     0.122600000000    -0.068089   
C138     C      0.445920000000     0.281180000000     0.121750000000    -0.0843864  
C139     C      0.521850000000     0.233460000000     0.090040000000    -0.0825787  
C140     C      0.486170000000     0.273730000000     0.127470000000     0.0367567  
C141     C      0.483990000000     0.228590000000     0.113460000000     0.0292542  
C142     C      0.452930000000     0.328000000000     0.126470000000     0.0721695  
C143     C      0.537280000000     0.358780000000     0.145410000000     0.0698674  
C144     C      0.531450000000     0.312730000000     0.141810000000    -0.0868528  
C145     C      0.712990000000     0.215990000000     0.443300000000     0.0531183  
C146     C      0.669750000000     0.240490000000     0.484340000000     0.0825942  
C147     C      0.751140000000     0.265110000000     0.439860000000    -0.067484   
C148     C      0.830440000000     0.374070000000     0.438960000000    -0.0796007  
C149     C      0.705080000000     0.289060000000     0.479170000000    -0.0882955  
C150     C      0.792860000000     0.351080000000     0.467430000000     0.0419137  
C151     C      0.748630000000     0.301840000000     0.460160000000     0.0350604  
C152     C      0.875170000000     0.415590000000     0.450880000000     0.0875622  
C153     C      0.844660000000     0.414560000000     0.516540000000     0.0815121  
C154     C      0.799950000000     0.373530000000     0.505850000000    -0.0823147  
C155     C      0.363220000000     0.909500000000     0.559500000000     0.0556898  
C156     C      0.413270000000     0.884930000000     0.599870000000     0.0703084  
C157     C      0.321860000000     0.864110000000     0.566640000000    -0.0706928  
C158     C      0.235410000000     0.776320000000     0.601510000000    -0.0876078  
C159     C      0.371840000000     0.839030000000     0.607450000000    -0.081282   
C160     C      0.280450000000     0.779770000000     0.594010000000     0.0390509  
C161     C      0.325510000000     0.828370000000     0.590450000000     0.0326123  
C162     C      0.191130000000     0.734050000000     0.591340000000     0.0766716  
C163     C      0.234830000000     0.696330000000     0.571660000000     0.0748264  
C164     C      0.279900000000     0.738260000000     0.581210000000    -0.0864697  
C165     C      0.871830000000     0.527290000000     0.610170000000     0.0559681  
C166     C      0.901800000000     0.591320000000     0.559160000000     0.0758997  
C167     C      0.826870000000     0.526950000000     0.608560000000    -0.0683453  
C168     C      0.739900000000     0.542290000000     0.611530000000    -0.0823886  
C169     C      0.859180000000     0.593600000000     0.559140000000    -0.0818469  
C170     C      0.772100000000     0.559390000000     0.578650000000     0.0440441  
C171     C      0.819740000000     0.559650000000     0.582190000000     0.0340046  
C172     C      0.696640000000     0.544240000000     0.607860000000     0.0862023  
C173     C      0.716410000000     0.580910000000     0.540520000000     0.0838779  
C174     C      0.758720000000     0.577340000000     0.542260000000    -0.0852623  
C175     C      0.336030000000     0.478720000000     0.629600000000     0.0660972  
C176     C      0.372580000000     0.564670000000     0.629290000000     0.0862532  
C177     C      0.291290000000     0.474530000000     0.613800000000    -0.064982   
C178     C      0.197130000000     0.482580000000     0.595570000000    -0.088375   
C179     C      0.328780000000     0.561360000000     0.614120000000    -0.0822103  
C180     C      0.244520000000     0.513680000000     0.581800000000     0.0433421  
C181     C      0.288420000000     0.516220000000     0.603940000000     0.037288   
C182     C      0.157150000000     0.484490000000     0.576010000000     0.0811937  
C183     C      0.209730000000     0.544920000000     0.528130000000     0.0831882  
C184     C      0.250420000000     0.544300000000     0.547160000000    -0.0871007  
C185     C      0.072790000000     0.512590000000     0.858400000000     0.0568138  
C186     C      0.076130000000     0.586740000000     0.871990000000     0.0773608  
C187     C      0.083330000000     0.527590000000     0.816780000000    -0.066721   
C188     C      0.114060000000     0.564090000000     0.731050000000    -0.084944   
C189     C      0.086760000000     0.602400000000     0.830540000000    -0.0803302  
C190     C      0.094780000000     0.584570000000     0.756270000000     0.0418992  
C191     C      0.090120000000     0.572550000000     0.802040000000     0.0353243  
C192     C      0.105570000000     0.563410000000     0.687920000000     0.0797113  
C193     C      0.068860000000     0.611850000000     0.692720000000     0.0821383  
C194     C      0.074340000000     0.611040000000     0.736360000000    -0.0817073  
C195     C      0.050130000000     0.460410000000     0.199460000000     0.0602656  
C196     C      0.980070000000     0.470340000000     0.192670000000     0.0776802  
C197     C      0.052130000000     0.465250000000     0.242870000000    -0.068207   
C198     C      0.036260000000     0.532860000000     0.317600000000    -0.0855409  
C199     C      0.981790000000     0.475970000000     0.235730000000    -0.07809    
C200     C      0.025400000000     0.486740000000     0.305790000000     0.0416053  
C201     C      0.019020000000     0.474890000000     0.261020000000     0.0317928  
C202     C      0.046180000000     0.545390000000     0.359640000000     0.0787673  
C203     C      0.032420000000     0.466790000000     0.378730000000     0.0790381  
C204     C      0.023590000000     0.453500000000     0.336760000000    -0.0833951  
C205     C      0.914960000000     0.338870000000     0.960270000000     0.063532   
C206     C      0.874120000000     0.383280000000     0.967840000000     0.0692053  
C207     C      0.870870000000     0.295440000000     0.968430000000    -0.0724291  
C208     C      0.767730000000     0.206780000000     0.965760000000    -0.0858184  
C209     C      0.829770000000     0.340390000000     0.974440000000    -0.0797925  
C210     C      0.782060000000     0.249960000000     0.986580000000     0.0387606  
C211     C      0.828270000000     0.295890000000     0.976780000000     0.0324369  
C212     C      0.723420000000     0.164540000000     0.974660000000     0.0765662  
C213     C      0.707760000000     0.206170000000     0.025120000000     0.0792521  
C214     C      0.751830000000     0.248920000000     0.017110000000    -0.0860819  
C215     C      0.236150000000     0.665810000000     0.116020000000     0.0561199  
C216     C      0.226860000000     0.700820000000     0.051580000000     0.0807965  
C217     C      0.277660000000     0.711690000000     0.127000000000    -0.0647727  
C218     C      0.381730000000     0.809850000000     0.119820000000    -0.0856578  
C219     C      0.266840000000     0.745780000000     0.061880000000    -0.0814191  
C220     C      0.334420000000     0.802040000000     0.109840000000     0.0421007  
C221     C      0.292140000000     0.752440000000     0.100260000000     0.0355718  
C222     C      0.422590000000     0.857240000000     0.118230000000     0.0789569  
C223     C      0.370570000000     0.889620000000     0.100770000000     0.0818937  
C224     C      0.329080000000     0.842900000000     0.102070000000    -0.0825836  
C225     C      0.899150000000     0.552330000000     0.055820000000     0.0620564  
C226     C      0.931710000000     0.563840000000     0.126190000000     0.0697551  
C227     C      0.858690000000     0.554160000000     0.068510000000    -0.0709693  
C228     C      0.803020000000     0.597270000000     0.117370000000    -0.0888102  
C229     C      0.891370000000     0.566090000000     0.139270000000    -0.0827498  
C230     C      0.807630000000     0.556000000000     0.121440000000     0.0412071  
C231     C      0.853740000000     0.559380000000     0.110210000000     0.0324383  
C232     C      0.756270000000     0.591940000000     0.111760000000     0.0863451  
C233     C      0.718790000000     0.506100000000     0.117550000000     0.082039   
C234     C      0.765040000000     0.510150000000     0.123310000000    -0.0895502  
C235     C      0.335780000000     0.477350000000     0.110850000000     0.0584583  
C236     C      0.397100000000     0.559100000000     0.097000000000     0.0856367  
C237     C      0.300690000000     0.485830000000     0.088310000000    -0.06397    
C238     C      0.242420000000     0.501950000000     0.017440000000    -0.0835573  
C239     C      0.363380000000     0.568410000000     0.074810000000    -0.0830803  
C240     C      0.279500000000     0.539780000000     0.041310000000     0.0471545  
C241     C      0.314940000000     0.531160000000     0.068320000000     0.0386262  
C242     C      0.205100000000     0.507540000000     0.997310000000     0.0891809  
C243     C      0.243720000000     0.589630000000     0.017760000000     0.0855967  
C244     C      0.281530000000     0.585110000000     0.039260000000    -0.0779842  
C245     C      0.721420000000     0.716200000000     0.646080000000     0.0579641  
C246     C      0.678020000000     0.759090000000     0.641700000000     0.0819338  
C247     C      0.765890000000     0.759690000000     0.641400000000    -0.0683952  
C248     C      0.839450000000     0.840040000000     0.588540000000    -0.0828267  
C249     C      0.721990000000     0.803250000000     0.636400000000    -0.0756129  
C250     C      0.810800000000     0.846280000000     0.616550000000     0.0425296  
C251     C      0.766030000000     0.803130000000     0.632780000000     0.0341444  
C252     C      0.880370000000     0.880340000000     0.571920000000     0.0795797  
C253     C      0.865500000000     0.933280000000     0.609650000000     0.0779756  
C254     C      0.824280000000     0.893670000000     0.626970000000    -0.0852324  
C255     C      0.370540000000     0.423940000000     0.510360000000     0.0637722  
C256     C      0.407270000000     0.375030000000     0.523160000000     0.0826245  
C257     C      0.324910000000     0.382190000000     0.501350000000    -0.0674416  
C258     C      0.229540000000     0.289480000000     0.517210000000    -0.0825244  
C259     C      0.362350000000     0.333010000000     0.514170000000    -0.0765557  
C260     C      0.270550000000     0.291200000000     0.500810000000     0.0415268  
C261     C      0.319970000000     0.336030000000     0.504630000000     0.0370777  
C262     C      0.185700000000     0.245140000000     0.520670000000     0.0780069  
C263     C      0.220170000000     0.204680000000     0.488580000000     0.0751552  
C264     C      0.264540000000     0.248490000000     0.484360000000    -0.0863259  
C265     C      0.702620000000     0.044700000000     0.496560000000     0.0697248  
C266     C      0.728940000000     0.094270000000     0.556490000000     0.073758   
C267     C      0.751140000000     0.057610000000     0.490630000000    -0.0673755  
C268     C      0.837410000000     0.046170000000     0.501260000000    -0.0856768  
C269     C      0.777310000000     0.102970000000     0.553620000000    -0.07694    
C270     C      0.837100000000     0.086130000000     0.517410000000     0.041185   
C271     C      0.788770000000     0.084180000000     0.520230000000     0.0349603  
C272     C      0.881280000000     0.046830000000     0.497340000000     0.0853162  
C273     C      0.926450000000     0.124930000000     0.526940000000     0.0797358  
C274     C      0.882670000000     0.126350000000     0.529730000000    -0.0825618  
C275     C      0.225120000000     0.058820000000     0.590750000000     0.0469269  
C276     C      0.247920000000     0.139430000000     0.568620000000     0.0745848  
C277     C      0.263630000000     0.061800000000     0.568790000000    -0.0734221  
C278     C      0.327730000000     0.066190000000     0.500870000000    -0.0808778  
C279     C      0.286570000000     0.143530000000     0.546790000000    -0.0851312  
C280     C      0.334000000000     0.106880000000     0.521370000000     0.0393655  
C281     C      0.293610000000     0.103770000000     0.545190000000     0.0296466  
C282     C      0.368330000000     0.067130000000     0.484970000000     0.0831958  
C283     C      0.419680000000     0.149260000000     0.504150000000     0.0802186  
C284     C      0.380030000000     0.149700000000     0.520590000000    -0.0879609  
C285     C      0.024770000000     0.883520000000     0.466840000000     0.0537326  
C286     C      0.092310000000     0.907170000000     0.516230000000     0.0718986  
C287     C      0.029540000000     0.843880000000     0.455960000000    -0.0690788  
C288     C      0.021720000000     0.745410000000     0.465280000000    -0.0897642  
C289     C      0.097310000000     0.867960000000     0.505830000000    -0.0776838  
C290     C      0.066060000000     0.789800000000     0.468200000000     0.0405633  
C291     C      0.065280000000     0.835210000000     0.475860000000     0.0318262  
C292     C      0.022180000000     0.702020000000     0.464460000000     0.0695248  
C293     C      0.109390000000     0.744870000000     0.465560000000     0.0764648  
C294     C      0.110330000000     0.789330000000     0.466980000000    -0.0859792  
C295     C      0.971000000000     0.327450000000     0.543690000000     0.0578489  
C296     C      0.008970000000     0.368640000000     0.607330000000     0.0724264  
C297     C      0.967340000000     0.284760000000     0.561830000000    -0.070304   
C298     C      0.036090000000     0.249480000000     0.628670000000    -0.0898893  
C299     C      0.005710000000     0.326830000000     0.625660000000    -0.0844256  
C300     C      0.989280000000     0.242760000000     0.619090000000     0.0440419  
C301     C      0.985190000000     0.284580000000     0.602780000000     0.0349831  
C302     C      0.041950000000     0.209210000000     0.633580000000     0.0823652  
C303     C      0.955540000000     0.155900000000     0.626340000000     0.0785521  
C304     C      0.948310000000     0.195660000000     0.620170000000    -0.088789   
C305     C      0.982590000000     0.990360000000     0.883420000000     0.0612904  
C306     C      0.031990000000     0.953220000000     0.888770000000     0.0856273  
C307     C      0.986890000000     0.994500000000     0.839940000000    -0.0676768  
C308     C      0.073680000000     0.022980000000     0.764560000000    -0.0832754  
C309     C      0.037200000000     0.957490000000     0.845870000000    -0.0837697  
C310     C      0.026000000000     0.989800000000     0.776740000000     0.0398464  
C311     C      0.015910000000     0.979710000000     0.821340000000     0.0337886  
C312     C      0.081620000000     0.037450000000     0.722670000000     0.0838657  
C313     C      0.997280000000     0.983080000000     0.704620000000     0.0851084  
C314     C      0.987830000000     0.968730000000     0.746310000000    -0.0835145  
C315     C      0.102450000000     0.024930000000     0.219630000000     0.0635543  
C316     C      0.103070000000     0.098970000000     0.204650000000     0.0785215  
C317     C      0.107110000000     0.033910000000     0.262410000000    -0.065577   
C318     C      0.135740000000     0.072620000000     0.350830000000    -0.087782   
C319     C      0.107250000000     0.108450000000     0.247240000000    -0.0758083  
C320     C      0.104680000000     0.079630000000     0.321820000000     0.0451939  
C321     C      0.107370000000     0.074700000000     0.276580000000     0.0338039  
C322     C      0.127060000000     0.068510000000     0.393300000000     0.0839328  
C323     C      0.058910000000     0.080190000000     0.379220000000     0.0838193  
C324     C      0.066990000000     0.085160000000     0.336480000000    -0.0850094  
C325     C      0.875280000000     0.839850000000     0.013960000000     0.0593267  
C326     C      0.858020000000     0.896990000000     0.041340000000     0.0821439  
C327     C      0.827820000000     0.802260000000     0.023220000000    -0.0730916  
C328     C      0.756510000000     0.736940000000     0.087290000000    -0.0849445  
C329     C      0.810400000000     0.860770000000     0.049720000000    -0.0841753  
C330     C      0.752520000000     0.773070000000     0.063970000000     0.041498   
C331     C      0.796490000000     0.812430000000     0.044050000000     0.0364291  
C332     C      0.716100000000     0.700800000000     0.107650000000     0.0697271  
C333     C      0.668080000000     0.736120000000     0.083930000000     0.079836   
C334     C      0.708110000000     0.773290000000     0.063280000000    -0.0875731  
C335     C      0.227400000000     0.190100000000     0.999130000000     0.0587238  
C336     C      0.237120000000     0.179620000000     0.072640000000     0.076619   
C337     C      0.269270000000     0.236260000000     0.000870000000    -0.0746982  
C338     C      0.333310000000     0.344880000000     0.038690000000    -0.0782707  
C339     C      0.279730000000     0.225850000000     0.074500000000    -0.0796358  
C340     C      0.338480000000     0.303890000000     0.037580000000     0.041931   
C341     C      0.295010000000     0.254680000000     0.038270000000     0.0342735  
C342     C      0.374780000000     0.391440000000     0.035290000000     0.0883323  
C343     C      0.424190000000     0.356830000000     0.024310000000     0.0815107  
C344     C      0.383880000000     0.310040000000     0.028410000000    -0.0912002  
C345     C      0.734710000000     0.060640000000     0.091820000000     0.0544611  
C346     C      0.722780000000     0.023660000000     0.026230000000     0.0719592  
C347     C      0.780770000000     0.063410000000     0.097740000000    -0.0713881  
C348     C      0.860360000000     0.034340000000     0.111390000000    -0.0863564  
C349     C      0.768870000000     0.027460000000     0.031060000000    -0.0813467  
C350     C      0.846560000000     0.049020000000     0.073500000000     0.0401224  
C351     C      0.798090000000     0.046570000000     0.067450000000     0.0320635  
C352     C      0.904580000000     0.033710000000     0.115340000000     0.082273   
C353     C      0.922720000000     0.063770000000     0.045900000000     0.0823006  
C354     C      0.878780000000     0.064520000000     0.040800000000    -0.0845305  
C355     C      0.211740000000     0.010400000000     0.014360000000     0.056337   
C356     C      0.196790000000     0.028360000000     0.943900000000     0.0758671  
C357     C      0.252510000000     0.008490000000     0.002680000000    -0.0741755  
C358     C      0.317170000000     0.977530000000     0.965970000000    -0.0839227  
C359     C      0.239290000000     0.028930000000     0.932050000000    -0.0809986  
C360     C      0.312140000000     0.017360000000     0.952520000000     0.0420632  
C361     C      0.266630000000     0.017410000000     0.961610000000     0.0346023  
C362     C      0.364000000000     0.983440000000     0.973430000000     0.0925248  
C363     C      0.400770000000     0.065180000000     0.948930000000     0.0817221  
C364     C      0.354320000000     0.060670000000     0.941430000000    -0.0839031  
C365     C      0.047580000000     0.682680000000     0.089060000000     0.0592628  
C366     C      0.019440000000     0.674010000000     0.017350000000     0.0788631  
C367     C      0.026580000000     0.711200000000     0.094910000000    -0.0739055  
C368     C      0.974890000000     0.773130000000     0.093450000000    -0.0793016  
C369     C      0.002050000000     0.705780000000     0.022140000000    -0.0842643  
C370     C      0.005020000000     0.769750000000     0.065290000000     0.045916   
C371     C      0.006050000000     0.724800000000     0.061240000000     0.0378795  
C372     C      0.983770000000     0.819040000000     0.103970000000     0.0950706  
C373     C      0.052160000000     0.856870000000     0.060540000000     0.0840713  
C374     C      0.043320000000     0.812050000000     0.048310000000    -0.0792272  
C375     C      0.045410000000     0.191030000000     0.067410000000     0.0566966  
C376     C      0.027330000000     0.177450000000     0.994120000000     0.0722223  
C377     C      0.023000000000     0.218930000000     0.065800000000    -0.0762303  
C378     C      0.964160000000     0.275070000000     0.040440000000    -0.0796745  
C379     C      0.009340000000     0.209570000000     0.991630000000    -0.0826695  
C380     C      0.005620000000     0.275130000000     0.027460000000     0.0528628  
C381     C      0.007600000000     0.230530000000     0.027980000000     0.0366475  
C382     C      0.968470000000     0.318920000000     0.051470000000     0.091782   
C383     C      0.054300000000     0.360610000000     0.040370000000     0.0947036  
C384     C      0.050760000000     0.318400000000     0.027030000000    -0.0834262  
Co1      Co     0.073570000000     0.073920000000     0.061540000000     1.08442    
Co2      Co     0.049420000000     0.951300000000     0.029130000000     1.17895    
Co3      Co     0.075910000000     0.058580000000     0.991150000000     0.895302   
Co4      Co     0.002350000000     0.975000000000     0.102390000000     1.11259    
Co5      Co     0.113070000000     0.049880000000     0.532980000000     1.1001     
Co6      Co     0.009630000000     0.064130000000     0.584990000000     1.06164    
Co7      Co     0.000300000000     0.009880000000     0.502300000000     1.12989    
Co8      Co     0.098870000000     0.117150000000     0.594550000000     0.940577   
Co9      Co     0.065720000000     0.474310000000     0.004140000000     1.14156    
Co10     Co     0.070660000000     0.558770000000     0.091930000000     1.09346    
Co11     Co     0.975670000000     0.468380000000     0.046750000000     1.07995    
Co12     Co     0.092600000000     0.585470000000     0.995170000000     1.08612    
Co13     Co     0.023950000000     0.489880000000     0.514940000000     1.05377    
Co14     Co     0.038170000000     0.610850000000     0.547580000000     1.11206    
Co15     Co     0.998510000000     0.503010000000     0.578340000000     0.916928   
Co16     Co     0.108740000000     0.596560000000     0.490750000000     1.10414    
Co17     Co     0.494990000000     0.037250000000     0.057190000000     1.07337    
Co18     Co     0.579920000000     0.017380000000     0.987760000000     1.13057    
Co19     Co     0.551700000000     0.099070000000     0.011100000000     0.890815   
Co20     Co     0.566010000000     0.990680000000     0.086890000000     1.1616     
Co21     Co     0.472170000000     0.051060000000     0.548480000000     1.12277    
Co22     Co     0.565180000000     0.052950000000     0.471830000000     1.10454    
Co23     Co     0.560750000000     0.142340000000     0.509510000000     1.06082    
Co24     Co     0.560890000000     0.031030000000     0.571250000000     1.06213    
Co25     Co     0.566910000000     0.475690000000     0.071120000000     1.12963    
Co26     Co     0.531090000000     0.585470000000     0.110120000000     1.04599    
Co27     Co     0.486400000000     0.489950000000     0.110150000000     1.07036    
Co28     Co     0.622670000000     0.596790000000     0.067170000000     1.15983    
Co29     Co     0.551610000000     0.508420000000     0.573210000000     0.868559   
Co30     Co     0.526240000000     0.615830000000     0.628040000000     1.18166    
Co31     Co     0.491420000000     0.501720000000     0.614400000000     1.0046     
Co32     Co     0.597140000000     0.623060000000     0.553680000000     1.13859    
H1       H      0.542940000000     0.479460000000     0.730230000000     0.0415788  
H2       H      0.547260000000     0.463780000000     0.946580000000     0.0283498  
H3       H      0.596540000000     0.619710000000     0.820920000000     0.0566084  
H4       H      0.535330000000     0.466660000000     0.871650000000     0.0564105  
H5       H      0.564930000000     0.473180000000     0.803280000000     0.0589792  
H6       H      0.654890000000     0.614540000000     0.868720000000     0.0593299  
H7       H      0.575580000000     0.625170000000     0.747860000000     0.028246   
H8       H      0.727580000000     0.687720000000     0.907100000000     0.152481   
H9       H      0.586600000000     0.618680000000     0.232150000000     0.0340906  
H10      H      0.561010000000     0.494730000000     0.452580000000     0.0290301  
H11      H      0.508950000000     0.463820000000     0.312510000000     0.0580961  
H12      H      0.562270000000     0.487380000000     0.378400000000     0.0540406  
H13      H      0.590830000000     0.620700000000     0.307580000000     0.0622111  
H14      H      0.524080000000     0.598160000000     0.356150000000     0.0687978  
H15      H      0.505830000000     0.462970000000     0.236630000000     0.0375245  
H16      H      0.435100000000     0.574490000000     0.402640000000     0.163993   
H17      H      0.505990000000     0.909770000000     0.436060000000     0.0409424  
H18      H      0.452730000000     0.666170000000     0.552370000000     0.0374568  
H19      H      0.500240000000     0.820070000000     0.567570000000     0.0564939  
H20      H      0.433780000000     0.727560000000     0.527650000000     0.0553051  
H21      H      0.499010000000     0.829230000000     0.433190000000     0.0671229  
H22      H      0.577740000000     0.813230000000     0.480910000000     0.0749402  
H23      H      0.510590000000     0.900010000000     0.569320000000     0.0224184  
H24      H      0.663240000000     0.723240000000     0.492940000000     0.151183   
H25      H      0.443170000000     0.148050000000     0.598680000000     0.0306987  
H26      H      0.581780000000     0.428330000000     0.626190000000     0.028236   
H27      H      0.595900000000     0.295720000000     0.643540000000     0.0529437  
H28      H      0.587760000000     0.358190000000     0.622750000000     0.0504337  
H29      H      0.437450000000     0.214990000000     0.622520000000     0.0549198  
H30      H      0.440280000000     0.270560000000     0.664670000000     0.0602818  
H31      H      0.600140000000     0.229500000000     0.614380000000     0.028887   
H32      H      0.409770000000     0.297750000000     0.732620000000     0.152365   
H33      H      0.608900000000     0.109880000000     0.678140000000     0.032955   
H34      H      0.586740000000     0.140520000000     0.889080000000     0.0301698  
H35      H      0.452410000000     0.044500000000     0.748330000000     0.0594087  
H36      H      0.583310000000     0.150640000000     0.814150000000     0.0550887  
H37      H      0.610820000000     0.114840000000     0.753660000000     0.0574999  
H38      H      0.481010000000     0.998240000000     0.802010000000     0.0616333  
H39      H      0.451560000000     0.040650000000     0.672970000000     0.0314668  
H40      H      0.441970000000     0.912460000000     0.834380000000     0.158236   
H41      H      0.606790000000     0.048190000000     0.203230000000     0.0450132  
H42      H      0.591190000000     0.179390000000     0.383460000000     0.034217   
H43      H      0.524910000000     0.141640000000     0.226500000000     0.0650606  
H44      H      0.609170000000     0.182930000000     0.310380000000     0.0621714  
H45      H      0.604120000000     0.070750000000     0.273910000000     0.072104   
H46      H      0.487570000000     0.037760000000     0.294660000000     0.0651028  
H47      H      0.528460000000     0.119110000000     0.156240000000     0.0400699  
H48      H      0.408610000000     0.965670000000     0.322190000000     0.159891   
H49      H      0.612870000000     0.702840000000     0.995770000000     0.0364612  
H50      H      0.506640000000     0.850550000000     0.065760000000     0.0248796  
H51      H      0.453930000000     0.694630000000     0.010470000000     0.0540642  
H52      H      0.499100000000     0.771840000000     0.058920000000     0.0539784  
H53      H      0.607190000000     0.775700000000     0.981850000000     0.0589399  
H54      H      0.561660000000     0.815020000000     0.938890000000     0.0656555  
H55      H      0.460430000000     0.622420000000     0.023020000000     0.027418   
H56      H      0.651210000000     0.925340000000     0.897920000000     0.162683   
H57      H      0.421640000000     0.333040000000     0.119620000000     0.0384178  
H58      H      0.552630000000     0.200140000000     0.058450000000     0.0282512  
H59      H      0.563210000000     0.308350000000     0.148010000000     0.0541557  
H60      H      0.551540000000     0.269060000000     0.081050000000     0.0516965  
H61      H      0.410130000000     0.252010000000     0.111040000000     0.0533975  
H62      H      0.416180000000     0.177120000000     0.140940000000     0.0574517  
H63      H      0.573740000000     0.388330000000     0.154370000000     0.0273829  
H64      H      0.342540000000     0.096600000000     0.142540000000     0.154131   
H65      H      0.904550000000     0.430530000000     0.429180000000     0.0386258  
H66      H      0.638170000000     0.232730000000     0.501840000000    -0.0022756  
H67      H      0.772590000000     0.357800000000     0.529260000000     0.0561523  
H68      H      0.699480000000     0.316210000000     0.492720000000     0.0524587  
H69      H      0.826300000000     0.359010000000     0.408480000000     0.0601125  
H70      H      0.783820000000     0.274160000000     0.423680000000     0.0640166  
H71      H      0.848970000000     0.429110000000     0.547300000000     0.038733   
H72      H      0.796670000000     0.202300000000     0.409000000000     0.159843   
H73      H      0.157150000000     0.733940000000     0.595160000000     0.0255066  
H74      H      0.448540000000     0.891640000000     0.613380000000     0.0234978  
H75      H      0.313880000000     0.739380000000     0.575180000000     0.0540386  
H76      H      0.376090000000     0.812070000000     0.626180000000     0.0524296  
H77      H      0.234380000000     0.807490000000     0.612180000000     0.0577923  
H78      H      0.286280000000     0.856110000000     0.552890000000     0.0644818  
H79      H      0.236010000000     0.665810000000     0.559550000000     0.0269334  
H80      H      0.283450000000     0.939920000000     0.559400000000     0.15364    
H81      H      0.673030000000     0.531050000000     0.634200000000     0.0409057  
H82      H      0.930400000000     0.617860000000     0.539440000000     0.0220496  
H83      H      0.780640000000     0.588860000000     0.515000000000     0.054794   
H84      H      0.857540000000     0.622000000000     0.540490000000     0.0552622  
H85      H      0.748240000000     0.528670000000     0.640550000000     0.0621463  
H86      H      0.797380000000     0.500650000000     0.627350000000     0.0574751  
H87      H      0.708090000000     0.596110000000     0.512320000000     0.0280157  
H88      H      0.805230000000     0.429930000000     0.660690000000     0.150405   
H89      H      0.121100000000     0.460900000000     0.588280000000     0.0332393  
H90      H      0.403280000000     0.601120000000     0.634870000000     0.0266251  
H91      H      0.286500000000     0.568210000000     0.535150000000     0.064337   
H92      H      0.327170000000     0.594380000000     0.608860000000     0.0540415  
H93      H      0.191230000000     0.458280000000     0.622180000000     0.0580484  
H94      H      0.259320000000     0.439080000000     0.607730000000     0.0591118  
H95      H      0.216140000000     0.569970000000     0.501980000000     0.0283768  
H96      H      0.265510000000     0.361910000000     0.623170000000     0.1551     
H97      H      0.117780000000     0.544040000000     0.669720000000     0.0298013  
H98      H      0.074400000000     0.611620000000     0.892720000000     0.0240362  
H99      H      0.059290000000     0.628080000000     0.754030000000     0.0601847  
H100     H      0.092130000000     0.637750000000     0.821090000000     0.0554309  
H101     H      0.133090000000     0.545970000000     0.744480000000     0.0556725  
H102     H      0.082680000000     0.502370000000     0.795160000000     0.061077   
H103     H      0.050160000000     0.630070000000     0.678590000000     0.0320671  
H104     H      0.075290000000     0.422680000000     0.821770000000     0.153639   
H105     H      0.055030000000     0.581750000000     0.367400000000     0.032918   
H106     H      0.952070000000     0.473930000000     0.173980000000     0.0297744  
H107     H      0.015420000000     0.417520000000     0.328560000000     0.0636545  
H108     H      0.955120000000     0.482680000000     0.249020000000     0.0556195  
H109     H      0.038340000000     0.559570000000     0.294320000000     0.0616347  
H110     H      0.080160000000     0.462780000000     0.262450000000     0.0689493  
H111     H      0.030590000000     0.440050000000     0.401880000000     0.049067   
H112     H      0.082690000000     0.387320000000     0.225620000000     0.156488   
H113     H      0.713270000000     0.132270000000     0.957190000000     0.0298244  
H114     H      0.873360000000     0.416760000000     0.967900000000     0.0411073  
H115     H      0.762050000000     0.281040000000     0.034760000000     0.0559334  
H116     H      0.796970000000     0.342340000000     0.978480000000     0.0559779  
H117     H      0.789790000000     0.205780000000     0.941800000000     0.05667    
H118     H      0.869380000000     0.260850000000     0.967710000000     0.0589656  
H119     H      0.685210000000     0.207350000000     0.048590000000     0.0353321  
H120     H      0.929090000000     0.253950000000     0.920970000000     0.157885   
H121     H      0.458760000000     0.861360000000     0.124140000000     0.0269125  
H122     H      0.209560000000     0.699350000000     0.020910000000     0.0288998  
H123     H      0.293030000000     0.838520000000     0.094710000000     0.0663247  
H124     H      0.278000000000     0.775560000000     0.039340000000     0.0587226  
H125     H      0.387540000000     0.779370000000     0.125960000000     0.0570609  
H126     H      0.298330000000     0.715960000000     0.156340000000     0.061639   
H127     H      0.364650000000     0.919750000000     0.092610000000     0.0447345  
H128     H      0.257790000000     0.645830000000     0.210530000000     0.158998   
H129     H      0.754430000000     0.624780000000     0.106210000000     0.0268784  
H130     H      0.959030000000     0.566830000000     0.150080000000     0.0354442  
H131     H      0.767550000000     0.477450000000     0.125630000000     0.0573969  
H132     H      0.888800000000     0.571220000000     0.171900000000     0.0545483  
H133     H      0.835340000000     0.633170000000     0.114890000000     0.059127   
H134     H      0.829850000000     0.550240000000     0.045840000000     0.0715088  
H135     H      0.686650000000     0.469860000000     0.116960000000     0.0244923  
H136     H      0.856720000000     0.486650000000     0.959430000000     0.165107   
H137     H      0.174220000000     0.475820000000     0.982680000000     0.0207515  
H138     H      0.434500000000     0.589600000000     0.099640000000     0.0238459  
H139     H      0.309850000000     0.615880000000     0.056620000000     0.0591344  
H140     H      0.376270000000     0.604370000000     0.061190000000     0.0522341  
H141     H      0.240570000000     0.467190000000     0.016080000000     0.0581868  
H142     H      0.262320000000     0.457450000000     0.086840000000     0.0636374  
H143     H      0.243580000000     0.623330000000     0.020100000000     0.0213381  
H144     H      0.236580000000     0.376480000000     0.125650000000     0.153527   
H145     H      0.901420000000     0.873710000000     0.550510000000     0.0434578  
H146     H      0.644030000000     0.760020000000     0.640150000000     0.0328996  
H147     H      0.803420000000     0.900240000000     0.648580000000     0.0562079  
H148     H      0.720520000000     0.836330000000     0.631400000000     0.0601141  
H149     H      0.829860000000     0.804150000000     0.578740000000     0.0623351  
H150     H      0.800140000000     0.759270000000     0.642980000000     0.0647289  
H151     H      0.874750000000     0.969370000000     0.618690000000     0.037991   
H152     H      0.745450000000     0.681420000000     0.725800000000     0.153012   
H153     H      0.155960000000     0.245130000000     0.535830000000     0.0333587  
H154     H      0.438310000000     0.370400000000     0.532840000000     0.0306222  
H155     H      0.294560000000     0.248350000000     0.469940000000     0.0533977  
H156     H      0.360540000000     0.298170000000     0.517120000000     0.0538861  
H157     H      0.232070000000     0.321460000000     0.530080000000     0.0581495  
H158     H      0.293370000000     0.385680000000     0.491230000000     0.0650481  
H159     H      0.217950000000     0.171990000000     0.477580000000     0.0241363  
H160     H      0.416930000000     0.489120000000     0.440520000000     0.14674    
H161     H      0.878490000000     0.014430000000     0.484990000000     0.0325324  
H162     H      0.721940000000     0.110840000000     0.581830000000     0.0325941  
H163     H      0.884510000000     0.158480000000     0.541440000000     0.0532691  
H164     H      0.805150000000     0.123690000000     0.577580000000     0.0518899  
H165     H      0.803620000000     0.013310000000     0.492400000000     0.0599922  
H166     H      0.759030000000     0.044160000000     0.463650000000     0.0694807  
H167     H      0.960970000000     0.156080000000     0.537460000000     0.0321225  
H168     H      0.690080000000     0.948380000000     0.466040000000     0.156422   
H169     H      0.362680000000     0.034540000000     0.470830000000     0.0572242  
H170     H      0.242860000000     0.170650000000     0.567580000000     0.0350337  
H171     H      0.386580000000     0.182430000000     0.535290000000     0.0523467  
H172     H      0.309580000000     0.177200000000     0.530040000000     0.0514044  
H173     H      0.292140000000     0.033130000000     0.498690000000     0.0644914  
H174     H      0.271120000000     0.032130000000     0.571070000000     0.0622997  
H175     H      0.455410000000     0.182160000000     0.506980000000     0.0264852  
H176     H      0.260030000000     0.009440000000     0.656220000000     0.153273   
H177     H      0.986860000000     0.668450000000     0.464060000000     0.031138   
H178     H      0.118720000000     0.931290000000     0.539460000000     0.0443866  
H179     H      0.145480000000     0.822920000000     0.468410000000     0.0617594  
H180     H      0.125430000000     0.862670000000     0.522290000000     0.058773   
H181     H      0.986600000000     0.743740000000     0.466110000000     0.0570802  
H182     H      0.005120000000     0.819220000000     0.432010000000     0.0606907  
H183     H      0.144250000000     0.745690000000     0.466710000000     0.0300159  
H184     H      0.920920000000     0.815470000000     0.423340000000     0.152295   
H185     H      0.079260000000     0.215810000000     0.638020000000     0.0302628  
H186     H      0.026430000000     0.400780000000     0.626460000000     0.0372518  
H187     H      0.911450000000     0.189600000000     0.613920000000     0.053614   
H188     H      0.020490000000     0.327950000000     0.657320000000     0.0589417  
H189     H      0.068470000000     0.285540000000     0.628850000000     0.0598858  
H190     H      0.951790000000     0.251900000000     0.543860000000     0.0606684  
H191     H      0.923540000000     0.119650000000     0.624170000000     0.0318724  
H192     H      0.878060000000     0.249890000000     0.494900000000     0.150261   
H193     H      0.118490000000     0.065090000000     0.714490000000     0.0414643  
H194     H      0.051040000000     0.937360000000     0.906580000000     0.0343793  
H195     H      0.950700000000     0.942360000000     0.754850000000     0.0595376  
H196     H      0.059030000000     0.944770000000     0.832100000000     0.0604349  
H197     H      0.104080000000     0.039480000000     0.787560000000     0.0641242  
H198     H      0.968850000000     0.010380000000     0.820720000000     0.0656353  
H199     H      0.966310000000     0.967060000000     0.682050000000     0.0357718  
H200     H      0.878170000000     0.966330000000     0.861800000000     0.15288    
H201     H      0.151220000000     0.061730000000     0.414580000000     0.0269209  
H202     H      0.101890000000     0.125540000000     0.183100000000     0.058594   
H203     H      0.042130000000     0.090470000000     0.314890000000     0.0633374  
H204     H      0.108990000000     0.141290000000     0.257150000000     0.0642896  
H205     H      0.165580000000     0.068650000000     0.340620000000     0.0625933  
H206     H      0.108870000000     0.008190000000     0.284790000000     0.0623966  
H207     H      0.028120000000     0.082730000000     0.389240000000     0.033715   
H208     H      0.116800000000     0.937380000000     0.260020000000     0.158499   
H209     H      0.720560000000     0.673280000000     0.125280000000     0.0279147  
H210     H      0.868370000000     0.933790000000     0.049240000000     0.0364526  
H211     H      0.704020000000     0.801320000000     0.046250000000     0.0565792  
H212     H      0.786510000000     0.870440000000     0.064180000000     0.0567244  
H213     H      0.790880000000     0.736790000000     0.090200000000     0.058273   
H214     H      0.815700000000     0.765080000000     0.015290000000     0.0694199  
H215     H      0.633680000000     0.736270000000     0.081690000000     0.0274616  
H216     H      0.851740000000     0.783790000000     0.934490000000     0.156728   
H217     H      0.370190000000     0.422530000000     0.038880000000     0.0364441  
H218     H      0.225390000000     0.158830000000     0.101590000000     0.0443834  
H219     H      0.388250000000     0.278860000000     0.024700000000     0.0550067  
H220     H      0.299960000000     0.239260000000     0.104050000000     0.0619079  
H221     H      0.297610000000     0.340900000000     0.042870000000     0.0674413  
H222     H      0.282060000000     0.258820000000     0.972940000000     0.0657809  
H223     H      0.459240000000     0.359970000000     0.018660000000     0.022494   
H224     H      0.261330000000     0.203170000000     0.908150000000     0.151957   
H225     H      0.913520000000     0.021140000000     0.144800000000     0.0324599  
H226     H      0.701310000000     0.007020000000     0.997770000000     0.0398967  
H227     H      0.869990000000     0.076950000000     0.011240000000     0.0609958  
H228     H      0.780860000000     0.014030000000     0.006720000000     0.0592951  
H229     H      0.836450000000     0.021990000000     0.137450000000     0.0609856  
H230     H      0.803830000000     0.079750000000     0.125530000000     0.0644193  
H231     H      0.946110000000     0.075390000000     0.019480000000     0.0472164  
H232     H      0.790860000000     0.154970000000     0.141240000000     0.152507   
H233     H      0.366400000000     0.952830000000     0.987040000000     0.0428086  
H234     H      0.174550000000     0.034020000000     0.919580000000     0.0389498  
H235     H      0.351880000000     0.092250000000     0.931000000000     0.0572801  
H236     H      0.249740000000     0.036800000000     0.899900000000     0.0580914  
H237     H      0.285250000000     0.943310000000     0.974600000000     0.0618975  
H238     H      0.274640000000     0.001490000000     0.026160000000     0.0759283  
H239     H      0.432880000000     0.100380000000     0.942850000000     0.028496   
H240     H      0.278730000000     0.060490000000     0.087790000000     0.149491   
H241     H      0.960140000000     0.821070000000     0.125860000000     0.0304502  
H242     H      0.016430000000     0.660870000000     0.986200000000     0.0431494  
H243     H      0.068170000000     0.810540000000     0.027450000000     0.0623365  
H244     H      0.987910000000     0.717380000000     0.995080000000     0.0720561  
H245     H      0.945920000000     0.740750000000     0.108090000000     0.057959   
H246     H      0.031350000000     0.727890000000     0.124730000000     0.0645707  
H247     H      0.082590000000     0.888680000000     0.046730000000     0.0202941  
H248     H      0.066660000000     0.702330000000     0.187650000000     0.152945   
H249     H      0.935720000000     0.318470000000     0.060570000000     0.0268409  
H250     H      0.028150000000     0.161580000000     0.965300000000     0.0468924  
H251     H      0.083920000000     0.318860000000     0.019150000000     0.0648175  
H252     H      0.998900000000     0.219420000000     0.961530000000     0.0743194  
H253     H      0.929330000000     0.241430000000     0.043020000000     0.0606578  
H254     H      0.021840000000     0.236190000000     0.093610000000     0.0717065  
H255     H      0.090400000000     0.393200000000     0.040310000000     0.0280952  
H256     H      0.146740000000     0.236430000000     0.105430000000     0.153033   
N1       N      0.606050000000     0.537980000000     0.951840000000    -0.202704   
N2       N      0.557000000000     0.552540000000     0.733620000000    -0.202455   
N3       N      0.544050000000     0.552410000000     0.448250000000    -0.193434   
N4       N      0.544420000000     0.540730000000     0.228890000000    -0.202658   
N5       N      0.527930000000     0.704490000000     0.533740000000    -0.196475   
N6       N      0.510010000000     0.910950000000     0.502810000000    -0.200205   
N7       N      0.505770000000     0.391820000000     0.643090000000    -0.179307   
N8       N      0.522280000000     0.184880000000     0.602750000000    -0.202994   
N9       N      0.536720000000     0.062990000000     0.889870000000    -0.194177   
N10      N      0.530050000000     0.073540000000     0.670270000000    -0.203125   
N11      N      0.530530000000     0.105650000000     0.381920000000    -0.195055   
N12      N      0.566080000000     0.080270000000     0.174810000000    -0.210649   
N13      N      0.538370000000     0.879070000000     0.006490000000    -0.195869   
N14      N      0.537880000000     0.658150000000     0.012830000000    -0.201976   
N15      N      0.485450000000     0.146060000000     0.086490000000    -0.176802   
N16      N      0.499070000000     0.367000000000     0.135470000000    -0.20224    
N17      N      0.675030000000     0.203810000000     0.469300000000    -0.194563   
N18      N      0.883150000000     0.433190000000     0.490580000000    -0.19824    
N19      N      0.409720000000     0.919310000000     0.574600000000    -0.190466   
N20      N      0.190980000000     0.695520000000     0.574050000000    -0.206658   
N21      N      0.907850000000     0.557510000000     0.582990000000    -0.19676    
N22      N      0.685980000000     0.564940000000     0.573250000000    -0.204192   
N23      N      0.377970000000     0.524350000000     0.633360000000    -0.199473   
N24      N      0.163670000000     0.516270000000     0.543180000000    -0.206135   
N25      N      0.069530000000     0.542440000000     0.886270000000    -0.191934   
N26      N      0.080780000000     0.584860000000     0.669250000000    -0.20095    
N27      N      0.015860000000     0.466020000000     0.174390000000    -0.194396   
N28      N      0.044400000000     0.512670000000     0.390010000000    -0.200426   
N29      N      0.917570000000     0.383520000000     0.964530000000    -0.190349   
N30      N      0.692980000000     0.164620000000     0.003270000000    -0.19845    
N31      N      0.209250000000     0.661130000000     0.078730000000    -0.189592   
N32      N      0.417220000000     0.896560000000     0.106630000000    -0.203357   
N33      N      0.934240000000     0.553870000000     0.085430000000    -0.194946   
N34      N      0.714650000000     0.546600000000     0.109500000000    -0.216743   
N35      N      0.384850000000     0.513000000000     0.111510000000    -0.191718   
N36      N      0.203950000000     0.549710000000     0.000350000000    -0.207499   
N37      N      0.677460000000     0.715810000000     0.641020000000    -0.204414   
N38      N      0.893260000000     0.926640000000     0.582270000000    -0.20166    
N39      N      0.410740000000     0.419710000000     0.523990000000    -0.191779   
N40      N      0.182410000000     0.202600000000     0.509340000000    -0.200396   
N41      N      0.691780000000     0.065980000000     0.527900000000    -0.190485   
N42      N      0.925410000000     0.084810000000     0.511810000000    -0.203711   
N43      N      0.214960000000     0.096110000000     0.587220000000    -0.203275   
N44      N      0.414620000000     0.106800000000     0.490320000000    -0.199392   
N45      N      0.056110000000     0.915110000000     0.497860000000    -0.193171   
N46      N      0.065620000000     0.701550000000     0.466690000000    -0.20677    
N47      N      0.993100000000     0.369860000000     0.566460000000    -0.1808     
N48      N      0.002340000000     0.163020000000     0.629040000000    -0.194968   
N49      N      0.008060000000     0.972610000000     0.907890000000    -0.194815   
N50      N      0.043210000000     0.019160000000     0.693300000000    -0.203165   
N51      N      0.096160000000     0.055630000000     0.191040000000    -0.189362   
N52      N      0.087650000000     0.070170000000     0.407220000000    -0.205853   
N53      N      0.892140000000     0.885820000000     0.028940000000    -0.194634   
N54      N      0.671650000000     0.699090000000     0.104330000000    -0.2143     
N55      N      0.209970000000     0.162110000000     0.035730000000    -0.192403   
N56      N      0.420430000000     0.397190000000     0.030700000000    -0.204163   
N57      N      0.704570000000     0.038410000000     0.056660000000    -0.197206   
N58      N      0.935040000000     0.047480000000     0.082550000000    -0.203875   
N59      N      0.182250000000     0.018090000000     0.984440000000    -0.19219    
N60      N      0.405450000000     0.027980000000     0.967870000000    -0.197941   
N61      N      0.042260000000     0.662390000000     0.050130000000    -0.196471   
N62      N      0.022740000000     0.860440000000     0.088160000000    -0.211684   
N63      N      0.046700000000     0.169190000000     0.031200000000    -0.179271   
N64      N      0.013290000000     0.361210000000     0.051430000000    -0.206919   
O1       O      0.088100000000     0.134780000000     0.063520000000    -0.424806   
O2       O      0.975580000000     0.910660000000     0.030780000000    -0.418857   
O3       O      0.014110000000     0.012150000000     0.967410000000    -0.409286   
O4       O      0.986460000000     0.024000000000     0.116160000000    -0.432778   
O5       O      0.034390000000     0.956690000000     0.971390000000    -0.452613   
O6       O      0.002560000000     0.052710000000     0.055080000000    -0.425213   
O7       O      0.950660000000     0.952010000000     0.063310000000    -0.467863   
O8       O      0.051230000000     0.105700000000     0.002520000000    -0.376954   
O9       O      0.078470000000     0.072340000000     0.123240000000    -0.37944    
O10      O      0.115700000000     0.984380000000     0.023950000000    -0.455693   
O11      O      0.136900000000     0.108070000000     0.004870000000    -0.468125   
O12      O      0.996900000000     0.911180000000     0.106640000000    -0.424748   
O13      O      0.066400000000     0.942180000000     0.083070000000    -0.449151   
O14      O      0.144320000000     0.097470000000     0.069370000000    -0.390917   
O15      O      0.053560000000     0.997290000000     0.142550000000    -0.433037   
O16      O      0.114750000000     0.029160000000     0.971160000000    -0.375705   
O17      O      0.054330000000     0.011600000000     0.050830000000    -0.581022   
O18      O      0.101500000000     0.048450000000     0.473490000000    -0.455953   
O19      O      0.976310000000     0.082540000000     0.618730000000    -0.400098   
O20      O      0.962190000000     0.040550000000     0.502290000000    -0.456477   
O21      O      0.114150000000     0.157920000000     0.547230000000    -0.420623   
O22      O      0.001340000000     0.103610000000     0.540380000000    -0.421782   
O23      O      0.148840000000     0.120640000000     0.521570000000    -0.43349    
O24      O      0.052850000000     0.136680000000     0.609300000000    -0.474483   
O25      O      0.036960000000     0.055780000000     0.460570000000    -0.455888   
O26      O      0.132110000000     0.049900000000     0.589720000000    -0.434504   
O27      O      0.945590000000     0.008520000000     0.575460000000    -0.412449   
O28      O      0.026500000000     0.968410000000     0.492000000000    -0.432262   
O29      O      0.087530000000     0.079360000000     0.645470000000    -0.42687    
O30      O      0.013110000000     0.024820000000     0.628220000000    -0.446807   
O31      O      0.083300000000     0.981760000000     0.539180000000    -0.435642   
O32      O      0.163350000000     0.124390000000     0.596540000000    -0.414862   
O33      O      0.959800000000     0.960630000000     0.540800000000    -0.43807    
O34      O      0.052370000000     0.052170000000     0.551020000000    -0.543768   
O35      O      0.000490000000     0.426900000000     0.980610000000    -0.425166   
O36      O      0.078280000000     0.618750000000     0.073100000000    -0.445096   
O37      O      0.962360000000     0.518160000000     0.044280000000    -0.441615   
O38      O      0.049160000000     0.553700000000     0.950110000000    -0.439533   
O39      O      0.003620000000     0.547760000000     0.102460000000    -0.413187   
O40      O      0.075380000000     0.503200000000     0.947070000000    -0.417851   
O41      O      0.050720000000     0.609850000000     0.008580000000    -0.419642   
O42      O      0.959250000000     0.461750000000     0.988210000000    -0.418033   
O43      O      0.127950000000     0.511170000000     0.022800000000    -0.477317   
O44      O      0.062300000000     0.500780000000     0.118190000000    -0.408185   
O45      O      0.979470000000     0.409250000000     0.052160000000    -0.44006    
O46      O      0.142240000000     0.624680000000     0.033840000000    -0.462871   
O47      O      0.141330000000     0.582370000000     0.088830000000    -0.3854     
O48      O      0.057790000000     0.442870000000     0.055410000000    -0.442595   
O49      O      0.146030000000     0.572320000000     0.980310000000    -0.422378   
O50      O      0.983170000000     0.466240000000     0.108260000000    -0.420852   
O51      O      0.050950000000     0.522330000000     0.033630000000    -0.525681   
O52      O      0.966540000000     0.480940000000     0.484570000000    -0.421728   
O53      O      0.027630000000     0.624570000000     0.492010000000    -0.450555   
O54      O      0.965870000000     0.534730000000     0.600920000000    -0.389598   
O55      O      0.071140000000     0.569510000000     0.440940000000    -0.449204   
O56      O      0.970870000000     0.571780000000     0.543320000000    -0.466267   
O57      O      0.047980000000     0.494760000000     0.459920000000    -0.396356   
O58      O      0.102550000000     0.654830000000     0.477310000000    -0.427035   
O59      O      0.938380000000     0.467810000000     0.545590000000    -0.432028   
O60      O      0.083810000000     0.498350000000     0.542630000000    -0.42805    
O61      O      0.049270000000     0.600950000000     0.607820000000    -0.429805   
O62      O      0.008260000000     0.447120000000     0.576530000000    -0.434277   
O63      O      0.149320000000     0.625170000000     0.537950000000    -0.469063   
O64      O      0.108510000000     0.659730000000     0.554260000000    -0.446352   
O65      O      0.999990000000     0.423510000000     0.512360000000    -0.385421   
O66      O      0.130780000000     0.550350000000     0.496770000000    -0.445409   
O67      O      0.054310000000     0.534780000000     0.613980000000    -0.420337   
O68      O      0.045190000000     0.555870000000     0.527660000000    -0.564679   
O69      O      0.453420000000     0.006410000000     0.009480000000    -0.418979   
O70      O      0.537470000000     0.949020000000     0.987220000000    -0.41547    
O71      O      0.567440000000     0.097010000000     0.954260000000    -0.416235   
O72      O      0.500090000000     0.945820000000     0.099350000000    -0.467422   
O73      O      0.532110000000     0.019940000000     0.950580000000    -0.430046   
O74      O      0.452380000000     0.976000000000     0.083130000000    -0.409827   
O75      O      0.559550000000     0.940600000000     0.051420000000    -0.454655   
O76      O      0.486680000000     0.079010000000     0.986780000000    -0.447237   
O77      O      0.528960000000     0.061010000000     0.110000000000    -0.44431    
O78      O      0.631790000000     0.087070000000     0.985870000000    -0.422099   
O79      O      0.533600000000     0.119500000000     0.059700000000    -0.432462   
O80      O      0.634070000000     0.032090000000     0.080050000000    -0.447824   
O81      O      0.632540000000     0.012070000000     0.016880000000    -0.446751   
O82      O      0.456250000000     0.064090000000     0.071020000000    -0.36796    
O83      O      0.574900000000     0.031660000000     0.130390000000    -0.467208   
O84      O      0.617200000000     0.127530000000     0.030900000000    -0.418309   
O85      O      0.545930000000     0.027060000000     0.037510000000    -0.545026   
O86      O      0.450570000000     0.060230000000     0.493850000000    -0.404405   
O87      O      0.518480000000     0.984110000000     0.477740000000    -0.405058   
O88      O      0.555760000000     0.136500000000     0.448020000000    -0.42642    
O89      O      0.492380000000     0.977970000000     0.586510000000    -0.407063   
O90      O      0.516250000000     0.058780000000     0.440570000000    -0.424726   
O91      O      0.451520000000     0.987790000000     0.534130000000    -0.42809    
O92      O      0.553730000000     0.981220000000     0.537760000000    -0.455693   
O93      O      0.497420000000     0.137830000000     0.498290000000    -0.4366     
O94      O      0.487770000000     0.044710000000     0.607600000000    -0.432854   
O95      O      0.621120000000     0.121570000000     0.458960000000    -0.384218   
O96      O      0.564820000000     0.158020000000     0.567160000000    -0.426114   
O97      O      0.631240000000     0.072810000000     0.560290000000    -0.40764    
O98      O      0.617200000000     0.046500000000     0.496980000000    -0.438386   
O99      O      0.485510000000     0.112650000000     0.568930000000    -0.443478   
O100     O      0.567410000000     0.075210000000     0.611090000000    -0.440884   
O101     O      0.623760000000     0.152550000000     0.517490000000    -0.439735   
O102     O      0.540030000000     0.069440000000     0.525700000000    -0.532303   
O103     O      0.501800000000     0.439630000000     0.048050000000    -0.470913   
O104     O      0.511300000000     0.591830000000     0.055550000000    -0.452976   
O105     O      0.418890000000     0.463040000000     0.127010000000    -0.363365   
O106     O      0.620310000000     0.576310000000     0.013620000000    -0.472135   
O107     O      0.466650000000     0.539120000000     0.116400000000    -0.571789   
O108     O      0.583400000000     0.497570000000     0.015050000000    -0.46924    
O109     O      0.587300000000     0.628130000000     0.039030000000    -0.431877   
O110     O      0.459720000000     0.475220000000     0.054160000000    -0.430105   
O111     O      0.632590000000     0.501070000000     0.090790000000    -0.483078   
O112     O      0.548290000000     0.579730000000     0.166400000000    -0.44442    
O113     O      0.474980000000     0.423500000000     0.120350000000    -0.392791   
O114     O      0.631000000000     0.619430000000     0.120960000000    -0.469218   
O115     O      0.588830000000     0.651670000000     0.109260000000    -0.425977   
O116     O      0.551890000000     0.448220000000     0.125770000000    -0.448298   
O117     O      0.667130000000     0.578960000000     0.087500000000    -0.492626   
O118     O      0.510430000000     0.500630000000     0.167450000000    -0.426255   
O119     O      0.557810000000     0.534660000000     0.088610000000    -0.521412   
O120     O      0.491370000000     0.456510000000     0.548250000000    -0.439098   
O121     O      0.508570000000     0.641800000000     0.580950000000    -0.463014   
O122     O      0.435150000000     0.499130000000     0.635690000000    -0.397853   
O123     O      0.559440000000     0.599290000000     0.504910000000    -0.442882   
O124     O      0.460550000000     0.575110000000     0.630950000000    -0.502504   
O125     O      0.559780000000     0.531570000000     0.514790000000    -0.410263   
O126     O      0.576900000000     0.670850000000     0.550590000000    -0.439028   
O127     O      0.449910000000     0.487150000000     0.564220000000    -0.398575   
O128     O      0.613470000000     0.549090000000     0.597920000000    -0.426341   
O129     O      0.541310000000     0.592670000000     0.679090000000    -0.469079   
O130     O      0.462670000000     0.434000000000     0.630760000000    -0.341935   
O131     O      0.638990000000     0.649260000000     0.601160000000    -0.461411   
O132     O      0.593410000000     0.669770000000     0.631750000000    -0.466399   
O133     O      0.541980000000     0.472490000000     0.624470000000    -0.437725   
O134     O      0.637000000000     0.593700000000     0.543740000000    -0.435336   
O135     O      0.525480000000     0.518630000000     0.669540000000    -0.400732   
O136     O      0.536330000000     0.567410000000     0.590800000000    -0.510904   
O137     O      0.716370000000     0.610290000000     0.990020000000    -0.159845   
O138     O      0.733260000000     0.660890000000     0.916720000000    -0.263622   
O139     O      0.675760000000     0.666460000000     0.973120000000    -0.179005   
O140     O      0.550230000000     0.673910000000     0.432150000000    -0.14206    
O141     O      0.461460000000     0.608840000000     0.399250000000    -0.262912   
O142     O      0.483030000000     0.603970000000     0.481460000000    -0.132831   
O143     O      0.652570000000     0.772500000000     0.553300000000    -0.178785   
O144     O      0.629000000000     0.715490000000     0.485790000000    -0.246657   
O145     O      0.653890000000     0.809780000000     0.476250000000    -0.168363   
O146     O      0.374450000000     0.336610000000     0.639060000000    -0.136218   
O147     O      0.387010000000     0.290680000000     0.707740000000    -0.264197   
O148     O      0.428630000000     0.388920000000     0.706270000000    -0.141776   
O149     O      0.433610000000     0.965010000000     0.922620000000    -0.148713   
O150     O      0.425570000000     0.927990000000     0.846910000000    -0.270674   
O151     O      0.498120000000     0.938470000000     0.903140000000    -0.140802   
O152     O      0.417970000000     0.034010000000     0.406190000000    -0.137694   
O153     O      0.403510000000     0.991920000000     0.331380000000    -0.259709   
O154     O      0.454280000000     0.974970000000     0.395290000000    -0.146378   
O155     O      0.607600000000     0.969640000000     0.940510000000    -0.196705   
O156     O      0.637710000000     0.907110000000     0.924230000000    -0.279817   
O157     O      0.553780000000     0.896520000000     0.886880000000    -0.164733   
O158     O      0.423960000000     0.051640000000     0.150470000000    -0.143276   
O159     O      0.363760000000     0.087470000000     0.160060000000    -0.257429   
O160     O      0.364590000000     0.050720000000     0.085620000000    -0.154868   
O161     O      0.669970000000     0.140920000000     0.385260000000    -0.152002   
O162     O      0.769480000000     0.197800000000     0.388930000000    -0.264566   
O163     O      0.722600000000     0.133700000000     0.451840000000    -0.16561    
O164     O      0.368510000000     0.959880000000     0.484860000000    -0.132042   
O165     O      0.290000000000     0.933620000000     0.531310000000    -0.276548   
O166     O      0.380340000000     0.005240000000     0.557850000000    -0.226644   
O167     O      0.927880000000     0.520270000000     0.678820000000    -0.147246   
O168     O      0.829320000000     0.458560000000     0.677130000000    -0.265009   
O169     O      0.886110000000     0.446960000000     0.624250000000    -0.168481   
O170     O      0.367570000000     0.430720000000     0.688170000000    -0.128163   
O171     O      0.276770000000     0.378330000000     0.650420000000    -0.264432   
O172     O      0.358500000000     0.409350000000     0.606440000000    -0.137111   
O173     O      0.998440000000     0.429520000000     0.891200000000    -0.139717   
O174     O      0.042800000000     0.418970000000     0.826440000000    -0.258164   
O175     O      0.091270000000     0.444490000000     0.902490000000    -0.164513   
O176     O      0.135910000000     0.488260000000     0.157020000000    -0.111789   
O177     O      0.111100000000     0.419350000000     0.218080000000    -0.256191   
O178     O      0.057490000000     0.398760000000     0.144520000000    -0.16234    
O179     O      0.017390000000     0.367280000000     0.949450000000    -0.151219   
O180     O      0.947960000000     0.272960000000     0.945870000000    -0.280242   
O181     O      0.950950000000     0.334580000000     0.884450000000    -0.150003   
O182     O      0.219250000000     0.571020000000     0.123990000000    -0.132551   
O183     O      0.267000000000     0.631420000000     0.188690000000    -0.264245   
O184     O      0.169340000000     0.597070000000     0.171900000000    -0.154016   
O185     O      0.954810000000     0.569390000000     0.982660000000    -0.13522    
O186     O      0.865630000000     0.487370000000     0.989660000000    -0.271173   
O187     O      0.872810000000     0.575130000000     0.976430000000    -0.171061   
O188     O      0.344200000000     0.436720000000     0.188120000000    -0.141556   
O189     O      0.253480000000     0.398650000000     0.149360000000    -0.254954   
O190     O      0.323040000000     0.383310000000     0.119530000000    -0.164791   
O191     O      0.750250000000     0.652210000000     0.622660000000    -0.162011   
O192     O      0.762750000000     0.676250000000     0.703740000000    -0.263289   
O193     O      0.670960000000     0.615660000000     0.670670000000    -0.159923   
O194     O      0.384940000000     0.513960000000     0.536060000000    -0.138291   
O195     O      0.425800000000     0.509490000000     0.465490000000    -0.257578   
O196     O      0.327360000000     0.473620000000     0.467180000000    -0.173318   
O197     O      0.629930000000     0.011170000000     0.430000000000    -0.154679   
O198     O      0.683700000000     0.967120000000     0.443480000000    -0.263927   
O199     O      0.616500000000     0.953390000000     0.498520000000    -0.169437   
O200     O      0.141640000000     0.968540000000     0.609980000000    -0.148159   
O201     O      0.231110000000     0.984960000000     0.639600000000    -0.270901   
O202     O      0.189490000000     0.032510000000     0.671290000000    -0.165522   
O203     O      0.001170000000     0.940620000000     0.411380000000    -0.161939   
O204     O      0.944440000000     0.842900000000     0.405800000000    -0.267276   
O205     O      0.938590000000     0.888920000000     0.471980000000    -0.173348   
O206     O      0.984570000000     0.352100000000     0.458480000000    -0.143325   
O207     O      0.908410000000     0.263530000000     0.479150000000    -0.269601   
O208     O      0.905450000000     0.345210000000     0.492990000000    -0.166258   
O209     O      0.972610000000     0.062130000000     0.920920000000    -0.149127   
O210     O      0.899160000000     0.001580000000     0.867150000000    -0.267556   
O211     O      0.912550000000     0.968420000000     0.943710000000    -0.158523   
O212     O      0.136860000000     0.987800000000     0.160660000000    -0.117184   
O213     O      0.141500000000     0.963420000000     0.242160000000    -0.259291   
O214     O      0.053100000000     0.926220000000     0.199010000000    -0.161833   
O215     O      0.950220000000     0.817530000000     0.008640000000    -0.16552    
O216     O      0.871090000000     0.774760000000     0.954670000000    -0.260965   
O217     O      0.937590000000     0.870990000000     0.946690000000    -0.163233   
O218     O      0.146930000000     0.173770000000     0.944510000000    -0.155128   
O219     O      0.235870000000     0.212130000000     0.911250000000    -0.266699   
O220     O      0.187950000000     0.118200000000     0.937060000000    -0.168784   
O221     O      0.678790000000     0.048150000000     0.160420000000    -0.154499   
O222     O      0.770820000000     0.126530000000     0.159510000000    -0.264988   
O223     O      0.698320000000     0.123110000000     0.106760000000    -0.159581   
O224     O      0.166900000000     0.949190000000     0.083080000000    -0.136004   
O225     O      0.258980000000     0.025450000000     0.095190000000    -0.249584   
O226     O      0.182140000000     0.040320000000     0.083650000000    -0.136287   
O227     O      0.141980000000     0.699220000000     0.115380000000    -0.152656   
O228     O      0.094220000000     0.721360000000     0.168980000000    -0.264526   
O229     O      0.063400000000     0.627260000000     0.153670000000    -0.182241   
O230     O      0.037520000000     0.130740000000     0.136380000000    -0.154716   
O231     O      0.129970000000     0.202790000000     0.117050000000    -0.240774   
O232     O      0.067110000000     0.223360000000     0.151450000000    -0.17179    
S1       S      0.691180000000     0.629620000000     0.952630000000     0.273958   
S2       S      0.506350000000     0.616180000000     0.434720000000     0.281634   
S3       S      0.624700000000     0.760580000000     0.506360000000     0.2816     
S4       S      0.414070000000     0.341280000000     0.677570000000     0.277182   
S5       S      0.465650000000     0.963460000000     0.884700000000     0.27793    
S6       S      0.443400000000     0.016650000000     0.372590000000     0.278933   
S7       S      0.587960000000     0.912010000000     0.931030000000     0.282939   
S8       S      0.399350000000     0.082040000000     0.126430000000     0.277721   
S9       S      0.718850000000     0.171770000000     0.417110000000     0.273226   
S10      S      0.350600000000     0.952730000000     0.533330000000     0.275472   
S11      S      0.878760000000     0.487830000000     0.647630000000     0.273227   
S12      S      0.334870000000     0.423820000000     0.643870000000     0.281756   
S13      S      0.051800000000     0.450670000000     0.869730000000     0.280212   
S14      S      0.088870000000     0.441560000000     0.179470000000     0.275059   
S15      S      0.958980000000     0.329810000000     0.935630000000     0.282127   
S16      S      0.222680000000     0.615950000000     0.150530000000     0.278473   
S17      S      0.899390000000     0.546680000000     0.000820000000     0.277961   
S18      S      0.313980000000     0.423500000000     0.142020000000     0.275765   
S19      S      0.725160000000     0.663860000000     0.660770000000     0.268689   
S20      S      0.376680000000     0.480730000000     0.495040000000     0.272985   
S21      S      0.657620000000     0.993960000000     0.466870000000     0.2795     
S22      S      0.196550000000     0.010810000000     0.628100000000     0.268733   
S23      S      0.976880000000     0.889020000000     0.438980000000     0.279558   
S24      S      0.942120000000     0.322110000000     0.493200000000     0.276009   
S25      S      0.941290000000     0.005520000000     0.904180000000     0.273551   
S26      S      0.108480000000     0.975190000000     0.205020000000     0.278674   
S27      S      0.909090000000     0.826000000000     0.980810000000     0.274493   
S28      S      0.199310000000     0.173170000000     0.947780000000     0.278283   
S29      S      0.720450000000     0.089960000000     0.129720000000     0.276507   
S30      S      0.204410000000     0.006540000000     0.069290000000     0.281904   
S31      S      0.086800000000     0.682300000000     0.131980000000     0.278003   
S32      S      0.070390000000     0.187040000000     0.118230000000     0.279117   


