data_structure

_audit_creation_method RASPA-1.0
_audit_creation_date 2023-6-4
_audit_author_name 'Poobodin Mano'

_cell_length_a    23.2648
_cell_length_b    23.7197
_cell_length_c    24.2444
_cell_angle_alpha 87.1354
_cell_angle_beta  93.8182
_cell_angle_gamma 120.438
_cell_volume      11507.3

_symmetry_cell_setting          triclinic
_symmetry_space_group_name_Hall 'P 1'
_symmetry_space_group_name_H-M  'P 1'
_symmetry_Int_Tables_number     1

_symmetry_equiv_pos_as_xyz 'x,y,z'

loop_
_atom_site_label
_atom_site_type_symbol
_atom_site_fract_x
_atom_site_fract_y
_atom_site_fract_z
_atom_site_charge
C1       C      0.041130000000     0.181880000000     0.017200000000     0.458702   
C2       C      0.915450000000     0.932920000000     0.019240000000     0.472017   
C3       C      0.072280000000     0.089960000000     0.919800000000     0.468653   
C4       C      0.950050000000     0.100490000000     0.148160000000     0.400837   
C5       C      0.063110000000     0.051310000000     0.199700000000     0.470847   
C6       C      0.200650000000     0.074990000000     0.994440000000     0.499442   
C7       C      0.183730000000     0.213160000000     0.107310000000     0.395744   
C8       C      0.050020000000     0.917170000000     0.077060000000     0.464422   
C9       C      0.039700000000     0.023700000000     0.424380000000     0.505149   
C10      C      0.046800000000     0.171180000000     0.595470000000     0.512399   
C11      C      0.892960000000     0.975120000000     0.521250000000     0.433179   
C12      C      0.206170000000     0.166260000000     0.506780000000     0.467171   
C13      C      0.209290000000     0.047630000000     0.597890000000     0.462802   
C14      C      0.944820000000     0.893880000000     0.618460000000     0.440909   
C15      C      0.116010000000     0.935780000000     0.478820000000     0.414546   
C16      C      0.064720000000     0.070000000000     0.695000000000     0.506516   
C17      C      0.942700000000     0.422970000000     0.945530000000     0.465841   
C18      C      0.054020000000     0.710090000000     0.992990000000     0.489348   
C19      C      0.890960000000     0.509640000000     0.064310000000     0.543491   
C20      C      0.086980000000     0.577980000000     0.884670000000     0.453799   
C21      C      0.203050000000     0.583200000000     0.000000000000     0.482795   
C22      C      0.034790000000     0.533890000000     0.154860000000     0.478945   
C23      C      0.004030000000     0.386160000000     0.055930000000     0.406791   
C24      C      0.179540000000     0.706550000000     0.077190000000     0.502682   
C25      C      0.914380000000     0.405150000000     0.481080000000     0.493268   
C26      C      0.132940000000     0.718830000000     0.497770000000     0.417136   
C27      C      0.962050000000     0.583680000000     0.543060000000     0.489088   
C28      C      0.052250000000     0.512300000000     0.383960000000     0.473236   
C29      C      0.188970000000     0.520940000000     0.472720000000     0.521958   
C30      C      0.060890000000     0.557010000000     0.656510000000     0.474233   
C31      C      0.019220000000     0.385360000000     0.587790000000     0.49962    
C32      C      0.227420000000     0.654330000000     0.547940000000     0.466535   
C33      C      0.437000000000     0.090150000000     0.024040000000     0.502587   
C34      C      0.615590000000     0.964010000000     0.026050000000     0.453309   
C35      C      0.571690000000     0.068900000000     0.935730000000     0.476646   
C36      C      0.422220000000     0.928570000000     0.117480000000     0.501521   
C37      C      0.549890000000     0.041600000000     0.213830000000     0.480295   
C38      C      0.728510000000     0.190740000000     0.988620000000     0.430276   
C39      C      0.571930000000     0.215650000000     0.107810000000     0.469063   
C40      C      0.706200000000     0.081180000000     0.134330000000     0.466408   
C41      C      0.436840000000     0.060550000000     0.523380000000     0.386832   
C42      C      0.598360000000     0.926370000000     0.518730000000     0.470636   
C43      C      0.577090000000     0.042560000000     0.441770000000     0.47465    
C44      C      0.458010000000     0.870210000000     0.620430000000     0.382846   
C45      C      0.546090000000     0.011780000000     0.712790000000     0.491077   
C46      C      0.686090000000     0.185740000000     0.510240000000     0.481348   
C47      C      0.547680000000     0.159810000000     0.615400000000     0.451317   
C48      C      0.706360000000     0.011520000000     0.620870000000     0.420858   
C49      C      0.424230000000     0.404670000000     0.021450000000     0.42651    
C50      C      0.584850000000     0.720750000000     0.009050000000     0.460222   
C51      C      0.419770000000     0.581500000000     0.084550000000     0.507457   
C52      C      0.546290000000     0.551420000000     0.917500000000     0.489149   
C53      C      0.658920000000     0.504930000000     0.995780000000     0.401126   
C54      C      0.529630000000     0.564870000000     0.193540000000     0.481699   
C55      C      0.556550000000     0.439300000000     0.119720000000     0.452082   
C56      C      0.700770000000     0.700700000000     0.089110000000     0.481283   
C57      C      0.436320000000     0.393250000000     0.501730000000     0.49188    
C58      C      0.617250000000     0.707040000000     0.502190000000     0.462095   
C59      C      0.418330000000     0.546220000000     0.570870000000     0.558626   
C60      C      0.572410000000     0.552460000000     0.418980000000     0.501765   
C61      C      0.731670000000     0.590790000000     0.492800000000     0.421205   
C62      C      0.525840000000     0.544660000000     0.689600000000     0.490644   
C63      C      0.560070000000     0.399940000000     0.602480000000     0.470686   
C64      C      0.703120000000     0.668260000000     0.615380000000     0.464587   
C65      C      0.548310000000     0.603080000000     0.772980000000     0.0292406  
C66      C      0.499510000000     0.488500000000     0.776570000000    -0.0281201  
C67      C      0.551100000000     0.603850000000     0.830640000000     0.0392973  
C68      C      0.500340000000     0.488520000000     0.834800000000     0.204628   
C69      C      0.498480000000     0.505260000000     0.279030000000     0.0299632  
C70      C      0.576940000000     0.618200000000     0.278410000000    -0.0276292  
C71      C      0.509810000000     0.502830000000     0.336220000000     0.0435486  
C72      C      0.586430000000     0.616970000000     0.336190000000     0.207103   
C73      C      0.663700000000     0.879870000000     0.495360000000     0.0292581  
C74      C      0.547040000000     0.814600000000     0.492080000000    -0.0297733  
C75      C      0.670070000000     0.824050000000     0.493770000000     0.0380314  
C76      C      0.553320000000     0.759700000000     0.482400000000     0.199704   
C77      C      0.610980000000     0.276250000000     0.611070000000     0.0282778  
C78      C      0.500880000000     0.225230000000     0.639350000000    -0.0309822  
C79      C      0.614010000000     0.336850000000     0.607840000000     0.0364739  
C80      C      0.503160000000     0.286650000000     0.635680000000     0.200542   
C81      C      0.596680000000     0.024380000000     0.860710000000     0.0293887  
C82      C      0.516360000000     0.056740000000     0.847420000000    -0.029192   
C83      C      0.592160000000     0.012500000000     0.804020000000     0.0408582  
C84      C      0.510970000000     0.044660000000     0.790400000000     0.203683   
C85      C      0.522480000000     0.059510000000     0.301090000000     0.0316089  
C86      C      0.592930000000     0.015370000000     0.296920000000    -0.0299797  
C87      C      0.525650000000     0.055140000000     0.358660000000     0.042871   
C88      C      0.601250000000     0.016350000000     0.355340000000     0.206976   
C89      C      0.540060000000     0.790220000000     0.002490000000     0.0240823  
C90      C      0.655350000000     0.836720000000     0.992610000000    -0.0320999  
C91      C      0.548600000000     0.851880000000     0.007360000000     0.032148   
C92      C      0.664840000000     0.900560000000     0.999000000000     0.198182   
C93      C      0.626870000000     0.332770000000     0.111060000000     0.032218   
C94      C      0.519900000000     0.269690000000     0.145410000000    -0.0234321  
C95      C      0.623530000000     0.389570000000     0.117810000000     0.0439265  
C96      C      0.515310000000     0.326890000000     0.150520000000     0.210211   
C97      C      0.795880000000     0.354330000000     0.473120000000     0.0284972  
C98      C      0.848370000000     0.294070000000     0.457570000000    -0.0258303  
C99      C      0.735620000000     0.296130000000     0.480820000000     0.0445811  
C100     C      0.789250000000     0.235690000000     0.468200000000     0.213895   
C101     C      0.314590000000     0.703870000000     0.619610000000     0.0314395  
C102     C      0.329220000000     0.748970000000     0.529280000000    -0.0302723  
C103     C      0.375770000000     0.758670000000     0.637040000000     0.0379582  
C104     C      0.385600000000     0.806480000000     0.547440000000     0.207533   
C105     C      0.909080000000     0.642420000000     0.506790000000     0.0318415  
C106     C      0.845490000000     0.530670000000     0.530860000000    -0.0247469  
C107     C      0.850200000000     0.643450000000     0.493120000000     0.0344232  
C108     C      0.786640000000     0.529750000000     0.513080000000     0.204394   
C109     C      0.306750000000     0.584000000000     0.484730000000     0.0326828  
C110     C      0.247890000000     0.472790000000     0.512250000000    -0.0241125  
C111     C      0.362000000000     0.591170000000     0.516950000000     0.0490523  
C112     C      0.302630000000     0.479610000000     0.545030000000     0.217199   
C113     C      0.087550000000     0.624340000000     0.794710000000     0.0297075  
C114     C      0.074710000000     0.519290000000     0.804060000000    -0.029967   
C115     C      0.083500000000     0.619730000000     0.737070000000     0.0412837  
C116     C      0.069090000000     0.513480000000     0.746170000000     0.20578    
C117     C      0.050850000000     0.575700000000     0.244360000000     0.0293405  
C118     C      0.036080000000     0.470740000000     0.235670000000    -0.0278067  
C119     C      0.051760000000     0.568560000000     0.301270000000     0.0378209  
C120     C      0.038890000000     0.463660000000     0.294440000000     0.205085   
C121     C      0.888620000000     0.308420000000     0.931780000000     0.0368536  
C122     C      0.825010000000     0.359420000000     0.936220000000    -0.0240068  
C123     C      0.833670000000     0.248560000000     0.946960000000     0.0439909  
C124     C      0.768760000000     0.299040000000     0.949930000000     0.207518   
C125     C      0.357550000000     0.817370000000     0.095370000000     0.0289886  
C126     C      0.304990000000     0.866930000000     0.135250000000    -0.029051   
C127     C      0.296550000000     0.761180000000     0.087250000000     0.0348712  
C128     C      0.241580000000     0.809230000000     0.126350000000     0.198821   
C129     C      0.720650000000     0.448680000000     0.007850000000     0.0197771  
C130     C      0.765760000000     0.555810000000     0.040080000000    -0.0348777  
C131     C      0.777600000000     0.447800000000     0.030140000000     0.0440595  
C132     C      0.820120000000     0.553550000000     0.065430000000     0.218742   
C133     C      0.334890000000     0.603250000000     0.099050000000     0.0237567  
C134     C      0.369760000000     0.608040000000     0.008610000000    -0.0271151  
C135     C      0.276520000000     0.599190000000     0.076730000000     0.0418663  
C136     C      0.313980000000     0.610450000000     0.985850000000     0.199613   
C137     C      0.884680000000     0.776610000000     0.620110000000     0.0265503  
C138     C      0.838130000000     0.832030000000     0.659010000000    -0.030678   
C139     C      0.822060000000     0.718830000000     0.619300000000     0.0420206  
C140     C      0.774000000000     0.774230000000     0.656890000000     0.201924   
C141     C      0.317830000000     0.221360000000     0.476730000000     0.0248852  
C142     C      0.260090000000     0.278440000000     0.481660000000    -0.0335442  
C143     C      0.378650000000     0.280760000000     0.476960000000     0.0401531  
C144     C      0.320240000000     0.337980000000     0.476960000000     0.206656   
C145     C      0.753820000000     0.944060000000     0.606500000000     0.023151   
C146     C      0.802770000000     0.050960000000     0.568930000000    -0.0373275  
C147     C      0.797920000000     0.933140000000     0.577700000000     0.0286216  
C148     C      0.844470000000     0.039310000000     0.537880000000     0.185312   
C149     C      0.322960000000     0.110500000000     0.572510000000     0.0326228  
C150     C      0.273370000000     0.996970000000     0.585780000000    -0.0262707  
C151     C      0.377210000000     0.112790000000     0.548020000000     0.0357547  
C152     C      0.331190000000     0.999830000000     0.567170000000     0.190637   
C153     C      0.071950000000     0.826400000000     0.454200000000     0.0286413  
C154     C      0.186980000000     0.891140000000     0.478120000000    -0.0332751  
C155     C      0.077380000000     0.770840000000     0.457920000000     0.0424903  
C156     C      0.190970000000     0.834050000000     0.487250000000     0.207913   
C157     C      0.088850000000     0.281410000000     0.618140000000     0.0288873  
C158     C      0.974390000000     0.214550000000     0.593490000000    -0.0289848  
C159     C      0.080620000000     0.335310000000     0.617400000000     0.0371891  
C160     C      0.965040000000     0.268690000000     0.594470000000     0.200445   
C161     C      0.126090000000     0.125080000000     0.835220000000     0.0270423  
C162     C      0.009170000000     0.055390000000     0.835320000000    -0.0327946  
C163     C      0.124300000000     0.114940000000     0.779060000000     0.0431917  
C164     C      0.006400000000     0.047170000000     0.778090000000     0.208325   
C165     C      0.015960000000     0.987390000000     0.279560000000     0.0277886  
C166     C      0.097270000000     0.099050000000     0.288750000000    -0.0292155  
C167     C      0.003170000000     0.983010000000     0.335050000000     0.0430173  
C168     C      0.087740000000     0.093900000000     0.346070000000     0.21226    
C169     C      0.801110000000     0.758470000000     0.040860000000     0.020663   
C170     C      0.763390000000     0.816390000000     0.089170000000    -0.0301294  
C171     C      0.851280000000     0.817120000000     0.019050000000     0.0341715  
C172     C      0.813520000000     0.875810000000     0.067080000000     0.185245   
C173     C      0.253310000000     0.322650000000     0.071600000000     0.0222579  
C174     C      0.296500000000     0.252340000000     0.087800000000    -0.0468682  
C175     C      0.313060000000     0.368190000000     0.046890000000     0.0191101  
C176     C      0.356330000000     0.297350000000     0.062310000000     0.202995   
C177     C      0.886560000000     0.152970000000     0.158290000000     0.0267031  
C178     C      0.835700000000     0.039030000000     0.169650000000    -0.026152   
C179     C      0.823380000000     0.147510000000     0.154750000000     0.0394132  
C180     C      0.772020000000     0.033180000000     0.167940000000     0.206737   
C181     C      0.261140000000     0.021540000000     0.985870000000     0.0321156  
C182     C      0.314830000000     0.136720000000     0.979700000000    -0.03071    
C183     C      0.322770000000     0.025980000000     0.997110000000     0.0374693  
C184     C      0.377390000000     0.141280000000     0.985060000000     0.203415   
C185     C      0.109710000000     0.866180000000     0.056640000000     0.0268738  
C186     C      0.992850000000     0.803190000000     0.061320000000    -0.0315546  
C187     C      0.110270000000     0.817170000000     0.028270000000     0.0475969  
C188     C      0.992450000000     0.753650000000     0.030990000000     0.194398   
C189     C      0.076660000000     0.294230000000     0.007320000000     0.0292278  
C190     C      0.965300000000     0.219250000000     0.028330000000    -0.0314728  
C191     C      0.068410000000     0.345180000000     0.022420000000     0.0404945  
C192     C      0.956050000000     0.270850000000     0.042890000000     0.202169   
Co1      Co     0.044770000000     0.119250000000     0.106710000000     1.0318     
Co2      Co     0.057720000000     0.000430000000     0.997030000000     1.13058    
Co3      Co     0.147100000000     0.143650000000     0.026260000000     1.0868     
Co4      Co     0.983200000000     0.993020000000     0.106030000000     0.981791   
Co5      Co     0.119850000000     0.024530000000     0.516300000000     1.11051    
Co6      Co     0.981200000000     0.038570000000     0.590220000000     1.13757    
Co7      Co     0.990800000000     0.938940000000     0.518280000000     0.93362    
Co8      Co     0.141360000000     0.124380000000     0.604340000000     1.1192     
Co9      Co     0.075580000000     0.494720000000     0.989530000000     0.933815   
Co10     Co     0.027970000000     0.621810000000     0.068790000000     1.19952    
Co11     Co     0.984840000000     0.474890000000     0.044030000000     1.01796    
Co12     Co     0.134960000000     0.649220000000     0.975860000000     1.10868    
Co13     Co     0.061020000000     0.450960000000     0.493260000000     1.23182    
Co14     Co     0.099900000000     0.617870000000     0.545950000000     1.0207     
Co15     Co     0.975840000000     0.475950000000     0.572070000000     1.12128    
Co16     Co     0.131370000000     0.603300000000     0.457610000000     0.943929   
Co17     Co     0.488800000000     0.068070000000     0.123590000000     1.1274     
Co18     Co     0.656680000000     0.097430000000     0.037460000000     1.03265    
Co19     Co     0.580000000000     0.153270000000     0.017570000000     1.01058    
Co20     Co     0.559410000000     0.984960000000     0.108290000000     1.10963    
Co21     Co     0.484020000000     0.016110000000     0.608920000000     0.880656   
Co22     Co     0.671220000000     0.067070000000     0.538350000000     1.15439    
Co23     Co     0.552800000000     0.091420000000     0.534370000000     1.06702    
Co24     Co     0.561360000000     0.960060000000     0.614900000000     1.06538    
Co25     Co     0.563430000000     0.495360000000     0.020890000000     1.03361    
Co26     Co     0.556230000000     0.645440000000     0.103490000000     1.13657    
Co27     Co     0.461220000000     0.491770000000     0.089210000000     1.0704     
Co28     Co     0.635010000000     0.625360000000     0.005760000000     1.01823    
Co29     Co     0.581190000000     0.476090000000     0.509820000000     1.01231    
Co30     Co     0.556990000000     0.625220000000     0.583970000000     1.1262     
Co31     Co     0.475210000000     0.465080000000     0.596310000000     1.15137    
Co32     Co     0.651490000000     0.609000000000     0.518940000000     1.03913    
H1       H      0.572720000000     0.651070000000     0.849950000000     0.0415845  
H2       H      0.567440000000     0.649330000000     0.750500000000     0.0455758  
H3       H      0.478020000000     0.441840000000     0.756320000000     0.0600298  
H4       H      0.454700000000     0.392830000000     0.839180000000     0.149242   
H5       H      0.482570000000     0.455750000000     0.357220000000     0.0442745  
H6       H      0.463470000000     0.460310000000     0.258110000000     0.0451283  
H7       H      0.603910000000     0.664820000000     0.256660000000     0.0541337  
H8       H      0.646750000000     0.712030000000     0.337540000000     0.147728   
H9       H      0.719480000000     0.829900000000     0.495740000000     0.0443292  
H10      H      0.708860000000     0.927170000000     0.495870000000     0.0488245  
H11      H      0.497890000000     0.809290000000     0.490610000000     0.0585845  
H12      H      0.462710000000     0.711720000000     0.449930000000     0.141523   
H13      H      0.660380000000     0.379100000000     0.595780000000     0.0403209  
H14      H      0.655100000000     0.275260000000     0.600700000000     0.0454866  
H15      H      0.455400000000     0.181860000000     0.651670000000     0.0556491  
H16      H      0.412370000000     0.246630000000     0.661140000000     0.144846   
H17      H      0.623030000000     0.994890000000     0.789040000000     0.0448466  
H18      H      0.631660000000     0.016220000000     0.886720000000     0.051827   
H19      H      0.486220000000     0.074780000000     0.863190000000     0.0595809  
H20      H      0.443360000000     0.071000000000     0.778340000000     0.148074   
H21      H      0.498200000000     0.071510000000     0.381250000000     0.044944   
H22      H      0.491200000000     0.077280000000     0.281530000000     0.0383037  
H23      H      0.619130000000     0.998510000000     0.273250000000     0.0577775  
H24      H      0.661980000000     0.982160000000     0.354800000000     0.150842   
H25      H      0.503640000000     0.853880000000     0.012150000000     0.0434651  
H26      H      0.489730000000     0.748590000000     0.004270000000     0.0389221  
H27      H      0.698250000000     0.831620000000     0.986740000000     0.054774   
H28      H      0.758770000000     0.943140000000     0.982710000000     0.158869   
H29      H      0.667040000000     0.436020000000     0.108210000000     0.0458929  
H30      H      0.672070000000     0.337940000000     0.095770000000     0.0455609  
H31      H      0.478040000000     0.223010000000     0.157650000000     0.0519669  
H32      H      0.428620000000     0.277070000000     0.183680000000     0.145968   
H33      H      0.692250000000     0.298610000000     0.491040000000     0.0322367  
H34      H      0.797240000000     0.400260000000     0.476640000000     0.0352171  
H35      H      0.891940000000     0.291470000000     0.448280000000     0.0589717  
H36      H      0.827500000000     0.182280000000     0.450790000000     0.147518   
H37      H      0.392890000000     0.761360000000     0.680060000000     0.0386368  
H38      H      0.286260000000     0.665600000000     0.649500000000     0.0455944  
H39      H      0.313540000000     0.747040000000     0.485920000000     0.0604815  
H40      H      0.395320000000     0.848020000000     0.473810000000     0.151557   
H41      H      0.854370000000     0.689930000000     0.480880000000     0.0431459  
H42      H      0.955950000000     0.687910000000     0.506120000000     0.0334702  
H43      H      0.841800000000     0.485420000000     0.546550000000     0.0536558  
H44      H      0.733940000000     0.434440000000     0.523570000000     0.140456   
H45      H      0.404860000000     0.639700000000     0.520490000000     0.0452647  
H46      H      0.308730000000     0.626880000000     0.464860000000     0.0371748  
H47      H      0.202410000000     0.425250000000     0.511800000000     0.0474717  
H48      H      0.253090000000     0.388060000000     0.570600000000     0.143386   
H49      H      0.086750000000     0.660570000000     0.712380000000     0.0462195  
H50      H      0.094940000000     0.668980000000     0.811950000000     0.0458899  
H51      H      0.071760000000     0.478930000000     0.829310000000     0.058886   
H52      H      0.061740000000     0.427260000000     0.752260000000     0.148703   
H53      H      0.058170000000     0.609590000000     0.324300000000     0.0425032  
H54      H      0.055890000000     0.621170000000     0.227580000000     0.0465565  
H55      H      0.028760000000     0.430970000000     0.210370000000     0.0633853  
H56      H      0.027700000000     0.376690000000     0.289960000000     0.151981   
H57      H      0.839610000000     0.206020000000     0.950510000000     0.0433931  
H58      H      0.935150000000     0.309880000000     0.925820000000     0.0406386  
H59      H      0.820600000000     0.402870000000     0.932470000000     0.056512   
H60      H      0.709980000000     0.335660000000     0.940210000000     0.145915   
H61      H      0.297380000000     0.721520000000     0.067950000000     0.0414444  
H62      H      0.401320000000     0.817180000000     0.082660000000     0.0361695  
H63      H      0.307450000000     0.908570000000     0.154250000000     0.0516538  
H64      H      0.195300000000     0.846540000000     0.160890000000     0.146923   
H65      H      0.781490000000     0.404910000000     0.024520000000     0.044043   
H66      H      0.680960000000     0.405490000000     0.987630000000     0.0458619  
H67      H      0.762740000000     0.598980000000     0.046570000000     0.0661854  
H68      H      0.848870000000     0.633380000000     0.106740000000     0.147391   
H69      H      0.239610000000     0.593660000000     0.104970000000     0.0448958  
H70      H      0.340990000000     0.598900000000     0.143550000000     0.0353063  
H71      H      0.405140000000     0.608490000000     0.981290000000     0.0591996  
H72      H      0.343640000000     0.621350000000     0.910600000000     0.150028   
H73      H      0.819060000000     0.675640000000     0.602970000000     0.0443799  
H74      H      0.926070000000     0.774870000000     0.603870000000     0.0430969  
H75      H      0.842890000000     0.876000000000     0.675430000000     0.0553585  
H76      H      0.734050000000     0.816970000000     0.693160000000     0.145434   
H77      H      0.424530000000     0.279350000000     0.477210000000     0.0391107  
H78      H      0.318750000000     0.176320000000     0.475060000000     0.0450357  
H79      H      0.213810000000     0.278920000000     0.483160000000     0.057905   
H80      H      0.274240000000     0.386090000000     0.457390000000     0.144457   
H81      H      0.793880000000     0.885750000000     0.581620000000     0.040106   
H82      H      0.716890000000     0.904250000000     0.631090000000     0.0421431  
H83      H      0.805340000000     0.097720000000     0.562760000000     0.0349301  
H84      H      0.876860000000     0.122840000000     0.497350000000     0.141067   
H85      H      0.416580000000     0.159860000000     0.533570000000     0.0401068  
H86      H      0.323160000000     0.156000000000     0.575570000000     0.0378054  
H87      H      0.232500000000     0.950360000000     0.599540000000     0.0565017  
H88      H      0.299790000000     0.909620000000     0.592820000000     0.158653   
H89      H      0.034480000000     0.724350000000     0.446220000000     0.0433768  
H90      H      0.023890000000     0.821310000000     0.441720000000     0.0355823  
H91      H      0.231390000000     0.938520000000     0.483890000000     0.0640124  
H92      H      0.287580000000     0.880520000000     0.487640000000     0.166559   
H93      H      0.124420000000     0.382560000000     0.626370000000     0.0463666  
H94      H      0.138440000000     0.288840000000     0.627580000000     0.0361423  
H95      H      0.931570000000     0.166820000000     0.585420000000     0.0490467  
H96      H      0.869060000000     0.214960000000     0.578050000000     0.150254   
H97      H      0.171170000000     0.140010000000     0.758500000000     0.0337315  
H98      H      0.174340000000     0.155290000000     0.856160000000     0.0400813  
H99      H      0.963130000000     0.030290000000     0.857100000000     0.0590905  
H100     H      0.909170000000     0.990220000000     0.775950000000     0.147083   
H101     H      0.966300000000     0.935670000000     0.351350000000     0.0370122  
H102     H      0.985750000000     0.943790000000     0.255370000000     0.0404233  
H103     H      0.132920000000     0.145930000000     0.270890000000     0.0619756  
H104     H      0.155680000000     0.185710000000     0.357100000000     0.150356   
H105     H      0.884650000000     0.814730000000     0.991290000000     0.0346102  
H106     H      0.796730000000     0.713470000000     0.027660000000     0.0222849  
H107     H      0.728510000000     0.817550000000     0.116020000000     0.0484406  
H108     H      0.776820000000     0.924370000000     0.098940000000     0.147535   
H109     H      0.316730000000     0.413450000000     0.031190000000     0.0432719  
H110     H      0.213820000000     0.334020000000     0.073070000000     0.0388049  
H111     H      0.291880000000     0.206760000000     0.103850000000     0.0648192  
H112     H      0.392100000000     0.238560000000     0.073590000000     0.14903    
H113     H      0.821040000000     0.191920000000     0.148830000000     0.0515789  
H114     H      0.930240000000     0.201190000000     0.154330000000     0.0523331  
H115     H      0.839320000000     0.995420000000     0.176890000000     0.0534876  
H116     H      0.728830000000     0.939680000000     0.186580000000     0.140023   
H117     H      0.323770000000     0.981120000000     0.005650000000     0.0384124  
H118     H      0.216260000000     0.973830000000     0.986680000000     0.0330693  
H119     H      0.312060000000     0.181060000000     0.974740000000     0.0441124  
H120     H      0.423990000000     0.234580000000     0.965960000000     0.16256    
H121     H      0.158280000000     0.824650000000     0.017750000000     0.0378761  
H122     H      0.157050000000     0.910400000000     0.065240000000     0.0393393  
H123     H      0.946040000000     0.797430000000     0.072900000000     0.0512634  
H124     H      0.894960000000     0.704320000000     0.025100000000     0.139729   
H125     H      0.111040000000     0.394160000000     0.018450000000     0.026244   
H126     H      0.125270000000     0.306000000000     0.994250000000     0.0382096  
H127     H      0.923950000000     0.169470000000     0.032050000000     0.0671593  
H128     H      0.861770000000     0.211700000000     0.054930000000     0.159405   
N1       N      0.525140000000     0.545730000000     0.746120000000    -0.177941   
N2       N      0.530060000000     0.547240000000     0.861610000000    -0.210208   
N3       N      0.534520000000     0.562340000000     0.250090000000    -0.177071   
N4       N      0.555280000000     0.557960000000     0.364450000000    -0.211139   
N5       N      0.602490000000     0.874040000000     0.501440000000    -0.171169   
N6       N      0.614400000000     0.763420000000     0.491900000000    -0.207298   
N7       N      0.553350000000     0.219770000000     0.623900000000    -0.168967   
N8       N      0.559310000000     0.341990000000     0.616760000000    -0.204501   
N9       N      0.560130000000     0.048230000000     0.882010000000    -0.174136   
N10      N      0.550160000000     0.023260000000     0.768660000000    -0.20908    
N11      N      0.555640000000     0.039170000000     0.270380000000    -0.176777   
N12      N      0.566930000000     0.036290000000     0.385570000000    -0.207347   
N13      N      0.593660000000     0.782120000000     0.998960000000    -0.177001   
N14      N      0.611080000000     0.906710000000     0.010210000000    -0.206182   
N15      N      0.573600000000     0.272390000000     0.122010000000    -0.170516   
N16      N      0.565520000000     0.386240000000     0.131840000000    -0.19916    
N17      N      0.853180000000     0.352600000000     0.467390000000    -0.177693   
N18      N      0.735330000000     0.238440000000     0.484220000000    -0.213933   
N19      N      0.290760000000     0.700430000000     0.565940000000    -0.172969   
N20      N      0.408330000000     0.810970000000     0.601660000000    -0.188555   
N21      N      0.906170000000     0.586320000000     0.526770000000    -0.179809   
N22      N      0.789110000000     0.587650000000     0.497730000000    -0.196131   
N23      N      0.249030000000     0.525450000000     0.484950000000    -0.186464   
N24      N      0.360490000000     0.539070000000     0.545950000000    -0.222659   
N25      N      0.082740000000     0.573930000000     0.828070000000    -0.170161   
N26      N      0.072050000000     0.563750000000     0.712890000000    -0.206026   
N27      N      0.041890000000     0.526720000000     0.211180000000    -0.174762   
N28      N      0.046520000000     0.513340000000     0.326900000000    -0.208495   
N29      N      0.885950000000     0.364590000000     0.933750000000    -0.173567   
N30      N      0.776330000000     0.245570000000     0.961770000000    -0.195527   
N31      N      0.361770000000     0.871400000000     0.116800000000    -0.183269   
N32      N      0.238000000000     0.757980000000     0.099000000000    -0.214758   
N33      N      0.715840000000     0.503510000000     0.011810000000    -0.157023   
N34      N      0.828610000000     0.501820000000     0.055780000000    -0.221953   
N35      N      0.377690000000     0.601830000000     0.064580000000    -0.18612    
N36      N      0.265410000000     0.600320000000     0.020450000000    -0.214594   
N37      N      0.891350000000     0.834630000000     0.635230000000    -0.166273   
N38      N      0.765620000000     0.719040000000     0.632570000000    -0.202613   
N39      N      0.260340000000     0.220960000000     0.486550000000    -0.172584   
N40      N      0.379440000000     0.338230000000     0.483290000000    -0.21437    
N41      N      0.755860000000     0.002880000000     0.601550000000    -0.16987    
N42      N      0.843900000000     0.981130000000     0.544460000000    -0.21872    
N43      N      0.268830000000     0.051860000000     0.587290000000    -0.172822   
N44      N      0.381280000000     0.057500000000     0.544440000000    -0.193384   
N45      N      0.125820000000     0.885610000000     0.468290000000    -0.162442   
N46      N      0.133910000000     0.774660000000     0.481620000000    -0.199062   
N47      N      0.036740000000     0.222200000000     0.602360000000    -0.185285   
N48      N      0.020020000000     0.329480000000     0.602220000000    -0.218351   
N49      N      0.068970000000     0.092670000000     0.863510000000    -0.176639   
N50      N      0.064870000000     0.076060000000     0.750720000000    -0.217622   
N51      N      0.061900000000     0.045610000000     0.256080000000    -0.174629   
N52      N      0.040790000000     0.035040000000     0.368610000000    -0.213611   
N53      N      0.756740000000     0.758120000000     0.075370000000    -0.183347   
N54      N      0.859170000000     0.875770000000     0.033630000000    -0.215452   
N55      N      0.244430000000     0.263990000000     0.090870000000    -0.17437    
N56      N      0.364780000000     0.356040000000     0.042460000000    -0.210672   
N57      N      0.891800000000     0.098020000000     0.160240000000    -0.15757    
N58      N      0.766210000000     0.087330000000     0.154320000000    -0.203986   
N59      N      0.257920000000     0.077270000000     0.983230000000    -0.185096   
N60      N      0.380020000000     0.086020000000     0.000460000000    -0.216331   
N61      N      0.050770000000     0.860850000000     0.069810000000    -0.177133   
N62      N      0.051980000000     0.761020000000     0.015360000000    -0.219052   
N63      N      0.026750000000     0.231210000000     0.014280000000    -0.172183   
N64      N      0.009000000000     0.333640000000     0.041620000000    -0.198737   
O1       O      0.002710000000     0.130400000000     0.042220000000    -0.428481   
O2       O      0.964240000000     0.931350000000     0.001650000000    -0.438242   
O3       O      0.125570000000     0.128750000000     0.947140000000    -0.442537   
O4       O      0.948480000000     0.048740000000     0.132290000000    -0.451622   
O5       O      0.028160000000     0.039820000000     0.943820000000    -0.462444   
O6       O      0.005020000000     0.154340000000     0.146080000000    -0.389026   
O7       O      0.930540000000     0.984260000000     0.042560000000    -0.42653    
O8       O      0.100670000000     0.194320000000     0.013520000000    -0.432029   
O9       O      0.082510000000     0.106280000000     0.175980000000    -0.411879   
O10      O      0.146170000000     0.037730000000     0.969460000000    -0.452014   
O11      O      0.172290000000     0.157500000000     0.100510000000    -0.43329    
O12      O      0.999410000000     0.917820000000     0.093470000000    -0.395328   
O13      O      0.090500000000     0.965650000000     0.050320000000    -0.468445   
O14      O      0.130210000000     0.214920000000     0.107020000000    -0.340435   
O15      O      0.029420000000     0.000660000000     0.171670000000    -0.460869   
O16      O      0.200990000000     0.108560000000     0.032320000000    -0.470082   
O17      O      0.068050000000     0.064680000000     0.059400000000    -0.538805   
O18      O      0.093330000000     0.052970000000     0.452530000000    -0.443869   
O19      O      0.005010000000     0.122650000000     0.568810000000    -0.465196   
O20      O      0.896980000000     0.924620000000     0.526450000000    -0.382143   
O21      O      0.167840000000     0.172610000000     0.536880000000    -0.443913   
O22      O      0.948680000000     0.023950000000     0.517910000000    -0.44029    
O23      O      0.200440000000     0.110410000000     0.505150000000    -0.394582   
O24      O      0.097800000000     0.171590000000     0.616050000000    -0.471955   
O25      O      0.990850000000     0.974670000000     0.445910000000    -0.429467   
O26      O      0.154970000000     0.999130000000     0.581160000000    -0.424594   
O27      O      0.941150000000     0.945830000000     0.619100000000    -0.415551   
O28      O      0.059830000000     0.922760000000     0.496270000000    -0.480397   
O29      O      0.117970000000     0.083020000000     0.672940000000    -0.470645   
O30      O      0.013590000000     0.059030000000     0.664820000000    -0.453018   
O31      O      0.162410000000     0.994850000000     0.475510000000    -0.406404   
O32      O      0.208180000000     0.099450000000     0.604240000000    -0.450489   
O33      O      0.985670000000     0.894200000000     0.586330000000    -0.416423   
O34      O      0.061620000000     0.040610000000     0.560970000000    -0.547283   
O35      O      0.998090000000     0.426660000000     0.950340000000    -0.443821   
O36      O      0.009450000000     0.653960000000     0.003610000000    -0.45355    
O37      O      0.901540000000     0.463000000000     0.064110000000    -0.419155   
O38      O      0.089340000000     0.625960000000     0.907330000000    -0.447464   
O39      O      0.940190000000     0.566030000000     0.064240000000    -0.498194   
O40      O      0.092090000000     0.534900000000     0.914920000000    -0.406538   
O41      O      0.108710000000     0.715130000000     0.982450000000    -0.440195   
O42      O      0.939170000000     0.463570000000     0.973320000000    -0.422924   
O43      O      0.154340000000     0.547270000000     0.027720000000    -0.452316   
O44      O      0.038690000000     0.586180000000     0.135660000000    -0.48015    
O45      O      0.947730000000     0.383610000000     0.056640000000    -0.356747   
O46      O      0.184200000000     0.674020000000     0.040870000000    -0.490097   
O47      O      0.121780000000     0.696790000000     0.085260000000    -0.424442   
O48      O      0.055910000000     0.442910000000     0.054940000000    -0.463893   
O49      O      0.193070000000     0.613660000000     0.960390000000    -0.415111   
O50      O      0.019130000000     0.487440000000     0.122400000000    -0.391624   
O51      O      0.050140000000     0.566140000000     0.018880000000    -0.520656   
O52      O      0.966060000000     0.400160000000     0.480370000000    -0.475335   
O53      O      0.140510000000     0.707840000000     0.549350000000    -0.39037    
O54      O      0.958390000000     0.543000000000     0.579350000000    -0.472076   
O55      O      0.058920000000     0.560210000000     0.409440000000    -0.447516   
O56      O      0.015610000000     0.615550000000     0.518820000000    -0.401888   
O57      O      0.060290000000     0.469560000000     0.411720000000    -0.419555   
O58      O      0.109020000000     0.671420000000     0.463620000000    -0.431871   
O59      O      0.917900000000     0.450460000000     0.508530000000    -0.466042   
O60      O      0.144450000000     0.486150000000     0.503870000000    -0.552545   
O61      O      0.075950000000     0.606340000000     0.624130000000    -0.384024   
O62      O      0.967330000000     0.388640000000     0.580980000000    -0.42256    
O63      O      0.209950000000     0.654100000000     0.498160000000    -0.473965   
O64      O      0.180950000000     0.622070000000     0.579840000000    -0.400191   
O65      O      0.069000000000     0.431210000000     0.567370000000    -0.466751   
O66      O      0.179200000000     0.557860000000     0.438930000000    -0.423969   
O67      O      0.030080000000     0.500260000000     0.636730000000    -0.432245   
O68      O      0.063740000000     0.530370000000     0.522380000000    -0.563259   
O69      O      0.432590000000     0.048170000000     0.059500000000    -0.47063    
O70      O      0.669260000000     0.017680000000     0.034600000000    -0.348485   
O71      O      0.545750000000     0.099400000000     0.953700000000    -0.432457   
O72      O      0.468850000000     0.933920000000     0.090790000000    -0.470753   
O73      O      0.615280000000     0.065300000000     0.966230000000    -0.426747   
O74      O      0.432330000000     0.977500000000     0.142950000000    -0.461558   
O75      O      0.564010000000     0.963420000000     0.037620000000    -0.463968   
O76      O      0.492750000000     0.141240000000     0.019260000000    -0.427207   
O77      O      0.537710000000     0.083270000000     0.190200000000    -0.467093   
O78      O      0.737020000000     0.142920000000     0.002830000000    -0.393603   
O79      O      0.614020000000     0.216690000000     0.076410000000    -0.415114   
O80      O      0.653910000000     0.025110000000     0.130930000000    -0.430168   
O81      O      0.705270000000     0.127320000000     0.106610000000    -0.426957   
O82      O      0.522590000000     0.160600000000     0.120000000000    -0.44624    
O83      O      0.551400000000     0.999000000000     0.185110000000    -0.447133   
O84      O      0.672160000000     0.184980000000     0.997700000000    -0.471105   
O85      O      0.565600000000     0.069320000000     0.075000000000    -0.525271   
O86      O      0.449110000000     0.014860000000     0.536290000000    -0.439771   
O87      O      0.650630000000     0.981300000000     0.522420000000    -0.458698   
O88      O      0.530890000000     0.035950000000     0.471230000000    -0.406468   
O89      O      0.512140000000     0.876460000000     0.644100000000    -0.392545   
O90      O      0.635740000000     0.065010000000     0.463450000000    -0.424928   
O91      O      0.453950000000     0.921270000000     0.605310000000    -0.417869   
O92      O      0.547250000000     0.918880000000     0.541680000000    -0.396008   
O93      O      0.487260000000     0.114980000000     0.507180000000    -0.375054   
O94      O      0.504300000000     0.017200000000     0.682100000000    -0.445825   
O95      O      0.701990000000     0.155160000000     0.546410000000    -0.446196   
O96      O      0.589120000000     0.156930000000     0.588190000000    -0.430976   
O97      O      0.648110000000     0.961500000000     0.625910000000    -0.374327   
O98      O      0.708350000000     0.065220000000     0.609640000000    -0.422901   
O99      O      0.495540000000     0.105520000000     0.622820000000    -0.392313   
O100     O      0.582230000000     0.994840000000     0.690320000000    -0.412735   
O101     O      0.625230000000     0.161990000000     0.494370000000    -0.403644   
O102     O      0.588650000000     0.045880000000     0.578400000000    -0.593088   
O103     O      0.478010000000     0.403590000000     0.025790000000    -0.337408   
O104     O      0.537870000000     0.681390000000     0.038540000000    -0.462566   
O105     O      0.418560000000     0.534810000000     0.062980000000    -0.473397   
O106     O      0.587130000000     0.605880000000     0.937970000000    -0.46365    
O107     O      0.464720000000     0.612370000000     0.120440000000    -0.463889   
O108     O      0.528890000000     0.501110000000     0.947820000000    -0.400283   
O109     O      0.629620000000     0.707210000000     0.000130000000    -0.410326   
O110     O      0.435000000000     0.461030000000     0.018530000000    -0.442972   
O111     O      0.602660000000     0.452190000000     0.990680000000    -0.372767   
O112     O      0.573890000000     0.613660000000     0.168340000000    -0.476958   
O113     O      0.498990000000     0.433920000000     0.119490000000    -0.387995   
O114     O      0.690000000000     0.648300000000     0.069840000000    -0.453868   
O115     O      0.649960000000     0.702660000000     0.100590000000    -0.460136   
O116     O      0.598980000000     0.486320000000     0.091800000000    -0.422514   
O117     O      0.658590000000     0.558240000000     0.001090000000    -0.500997   
O118     O      0.479610000000     0.520790000000     0.166170000000    -0.433973   
O119     O      0.546670000000     0.565010000000     0.055870000000    -0.521943   
O120     O      0.492490000000     0.397200000000     0.504590000000    -0.428203   
O121     O      0.565620000000     0.655410000000     0.511780000000    -0.444207   
O122     O      0.419730000000     0.501360000000     0.599120000000    -0.465035   
O123     O      0.610750000000     0.602020000000     0.447030000000    -0.41354    
O124     O      0.472150000000     0.595230000000     0.560440000000    -0.498594   
O125     O      0.555220000000     0.497420000000     0.440680000000    -0.457282   
O126     O      0.669450000000     0.704370000000     0.513990000000    -0.365123   
O127     O      0.431230000000     0.435020000000     0.527030000000    -0.447666   
O128     O      0.675200000000     0.539370000000     0.500950000000    -0.481001   
O129     O      0.538930000000     0.595210000000     0.660010000000    -0.450712   
O130     O      0.508340000000     0.404210000000     0.605720000000    -0.426536   
O131     O      0.698260000000     0.621380000000     0.589230000000    -0.428634   
O132     O      0.652370000000     0.675500000000     0.611780000000    -0.419251   
O133     O      0.607290000000     0.445300000000     0.576100000000    -0.42046    
O134     O      0.733380000000     0.645280000000     0.487330000000    -0.388897   
O135     O      0.511180000000     0.492120000000     0.666740000000    -0.473325   
O136     O      0.559620000000     0.544270000000     0.555580000000    -0.5223     
O137     O      0.473970000000     0.430140000000     0.864740000000    -0.265293   
O138     O      0.629000000000     0.674310000000     0.363930000000    -0.26336    
O139     O      0.499110000000     0.702970000000     0.462020000000    -0.264541   
O140     O      0.448320000000     0.290400000000     0.649170000000    -0.280845   
O141     O      0.467250000000     0.055800000000     0.756380000000    -0.268917   
O142     O      0.641340000000     0.995070000000     0.382380000000    -0.279461   
O143     O      0.727120000000     0.955840000000     0.994920000000    -0.268476   
O144     O      0.460000000000     0.322990000000     0.172530000000    -0.275908   
O145     O      0.785180000000     0.175690000000     0.464320000000    -0.304908   
O146     O      0.418100000000     0.858890000000     0.511050000000    -0.261415   
O147     O      0.726520000000     0.471060000000     0.512180000000    -0.276035   
O148     O      0.298340000000     0.426890000000     0.575860000000    -0.273453   
O149     O      0.062840000000     0.458340000000     0.722820000000    -0.269889   
O150     O      0.032870000000     0.407140000000     0.319010000000    -0.278949   
O151     O      0.707520000000     0.294540000000     0.954210000000    -0.281208   
O152     O      0.183830000000     0.805440000000     0.142520000000    -0.28294    
O153     O      0.864700000000     0.602450000000     0.100950000000    -0.280917   
O154     O      0.303880000000     0.614610000000     0.929240000000    -0.281367   
O155     O      0.719610000000     0.773800000000     0.677250000000    -0.280564   
O156     O      0.320530000000     0.395970000000     0.466770000000    -0.271609   
O157     O      0.884210000000     0.085120000000     0.498920000000    -0.265595   
O158     O      0.337290000000     0.944700000000     0.572200000000    -0.283727   
O159     O      0.251200000000     0.836760000000     0.499030000000    -0.289548   
O160     O      0.902670000000     0.261770000000     0.583410000000    -0.274508   
O161     O      0.945990000000     0.007190000000     0.750150000000    -0.282177   
O162     O      0.123890000000     0.147710000000     0.379520000000    -0.270772   
O163     O      0.816440000000     0.933790000000     0.078610000000    -0.27733    
O164     O      0.405950000000     0.282440000000     0.057070000000    -0.27241    
O165     O      0.715700000000     0.972870000000     0.176900000000    -0.281498   
O166     O      0.435310000000     0.201330000000     0.980380000000    -0.273364   
O167     O      0.932590000000     0.699630000000     0.014210000000    -0.269063   
O168     O      0.895410000000     0.258390000000     0.060700000000    -0.274872   


