data_structure

_audit_creation_method RASPA-1.0
_audit_creation_date 2023-6-4
_audit_author_name 'Poobodin Mano'

_cell_length_a    31.7553
_cell_length_b    31.5145
_cell_length_c    32.3897
_cell_angle_alpha 87.1328
_cell_angle_beta  93.8233
_cell_angle_gamma 120.435
_cell_volume      27880.4

_symmetry_cell_setting          triclinic
_symmetry_space_group_name_Hall 'P 1'
_symmetry_space_group_name_H-M  'P 1'
_symmetry_Int_Tables_number     1

_symmetry_equiv_pos_as_xyz 'x,y,z'

loop_
_atom_site_label
_atom_site_type_symbol
_atom_site_fract_x
_atom_site_fract_y
_atom_site_fract_z
_atom_site_charge
C1       C      0.085740000000     0.196840000000     0.022150000000     0.4526     
C2       C      0.960000000000     0.968970000000     0.034300000000     0.466051   
C3       C      0.071110000000     0.081400000000     0.957770000000     0.482424   
C4       C      0.955930000000     0.070080000000     0.109720000000     0.463353   
C5       C      0.071260000000     0.095570000000     0.158820000000     0.482435   
C6       C      0.129950000000     0.028610000000     0.025020000000     0.393296   
C7       C      0.155640000000     0.178560000000     0.096420000000     0.43792    
C8       C      0.038040000000     0.970690000000     0.109080000000     0.378322   
C9       C      0.056070000000     0.048580000000     0.453220000000     0.46721    
C10      C      0.036360000000     0.131510000000     0.595440000000     0.455267   
C11      C      0.944080000000     0.055570000000     0.550620000000     0.473963   
C12      C      0.148880000000     0.113530000000     0.507000000000     0.461151   
C13      C      0.143910000000     0.040600000000     0.594560000000     0.44869    
C14      C      0.932430000000     0.934190000000     0.568380000000     0.452847   
C15      C      0.002230000000     0.932110000000     0.507310000000     0.45203    
C16      C      0.072380000000     0.056890000000     0.656770000000     0.460379   
C17      C      0.954030000000     0.439920000000     0.005270000000     0.471624   
C18      C      0.034270000000     0.676740000000     0.035760000000     0.401598   
C19      C      0.934620000000     0.526820000000     0.034010000000     0.443319   
C20      C      0.051620000000     0.601130000000     0.933250000000     0.480505   
C21      C      0.146320000000     0.579530000000     0.987870000000     0.502716   
C22      C      0.008960000000     0.554410000000     0.130780000000     0.431123   
C23      C      0.077020000000     0.477980000000     0.046660000000     0.463614   
C24      C      0.118210000000     0.652650000000     0.097980000000     0.486303   
C25      C      0.939970000000     0.436450000000     0.506700000000     0.48105    
C26      C      0.084420000000     0.683760000000     0.523920000000     0.418512   
C27      C      0.964570000000     0.575580000000     0.540730000000     0.490423   
C28      C      0.030080000000     0.534130000000     0.433900000000     0.449553   
C29      C      0.142540000000     0.549650000000     0.491150000000     0.480093   
C30      C      0.030230000000     0.564410000000     0.634850000000     0.466012   
C31      C      0.021180000000     0.431410000000     0.584140000000     0.478056   
C32      C      0.158260000000     0.633330000000     0.563850000000     0.460514   
C33      C      0.438510000000     0.043210000000     0.022640000000     0.464396   
C34      C      0.553820000000     0.959980000000     0.011360000000     0.376906   
C35      C      0.527000000000     0.057100000000     0.965210000000     0.478786   
C36      C      0.418800000000     0.953700000000     0.110730000000     0.397957   
C37      C      0.531320000000     0.034560000000     0.165940000000     0.473493   
C38      C      0.636850000000     0.144920000000     0.017230000000     0.457805   
C39      C      0.502610000000     0.131730000000     0.101430000000     0.459723   
C40      C      0.631520000000     0.033100000000     0.093600000000     0.470139   
C41      C      0.435170000000     0.035730000000     0.527770000000     0.459913   
C42      C      0.534230000000     0.920930000000     0.536730000000     0.475684   
C43      C      0.521220000000     0.054590000000     0.463810000000     0.445506   
C44      C      0.454280000000     0.932510000000     0.623070000000     0.482387   
C45      C      0.550780000000     0.044950000000     0.667450000000     0.526829   
C46      C      0.629740000000     0.123240000000     0.528120000000     0.449508   
C47      C      0.488860000000     0.104110000000     0.612560000000     0.385101   
C48      C      0.645590000000     0.034990000000     0.562290000000     0.484714   
C49      C      0.444760000000     0.439720000000     0.975000000000     0.459013   
C50      C      0.531360000000     0.653170000000     0.976520000000     0.508781   
C51      C      0.436350000000     0.546520000000     0.055860000000     0.489271   
C52      C      0.533180000000     0.510090000000     0.919920000000     0.446348   
C53      C      0.636990000000     0.553870000000     0.999600000000     0.44038    
C54      C      0.534780000000     0.541250000000     0.120950000000     0.518596   
C55      C      0.482630000000     0.421450000000     0.069230000000     0.381085   
C56      C      0.640620000000     0.665830000000     0.023680000000     0.506233   
C57      C      0.454820000000     0.405870000000     0.477820000000     0.45707    
C58      C      0.556610000000     0.635670000000     0.492210000000     0.466771   
C59      C      0.429200000000     0.529830000000     0.534580000000     0.499332   
C60      C      0.541550000000     0.514920000000     0.424170000000     0.470084   
C61      C      0.656200000000     0.558610000000     0.480860000000     0.402904   
C62      C      0.498340000000     0.502800000000     0.622500000000     0.468809   
C63      C      0.522920000000     0.420520000000     0.573150000000     0.452892   
C64      C      0.632710000000     0.613850000000     0.566870000000     0.484451   
C65      C      0.482860000000     0.495550000000     0.856830000000     0.151081   
C66      C      0.545390000000     0.474670000000     0.862160000000     0.0684109  
C67      C      0.475730000000     0.485410000000     0.814390000000    -0.127696   
C68      C      0.460340000000     0.445740000000     0.725420000000    -0.0850649  
C69      C      0.539530000000     0.465550000000     0.819600000000    -0.0980939  
C70      C      0.504150000000     0.472500000000     0.749210000000     0.0265571  
C71      C      0.505150000000     0.472100000000     0.795150000000     0.0484843  
C72      C      0.459190000000     0.454240000000     0.682450000000     0.0695169  
C73      C      0.543420000000     0.514690000000     0.686540000000     0.0707964  
C74      C      0.546190000000     0.506030000000     0.729000000000    -0.0848275  
C75      C      0.448270000000     0.508800000000     0.874880000000    -0.225591   
C76      C      0.572970000000     0.569980000000     0.189020000000     0.156148   
C77      C      0.504750000000     0.489220000000     0.180300000000     0.0773233  
C78      C      0.568820000000     0.564320000000     0.232100000000    -0.127994   
C79      C      0.532330000000     0.555520000000     0.317840000000    -0.0845838  
C80      C      0.500780000000     0.482450000000     0.223230000000    -0.097249   
C81      C      0.527510000000     0.516350000000     0.295250000000     0.0272983  
C82      C      0.531890000000     0.520980000000     0.249560000000     0.051159   
C83      C      0.534190000000     0.553360000000     0.361090000000     0.0719291  
C84      C      0.524040000000     0.473520000000     0.360280000000     0.071065   
C85      C      0.521650000000     0.474320000000     0.316980000000    -0.0840207  
C86      C      0.617110000000     0.615920000000     0.173360000000    -0.221386   
C87      C      0.519570000000     0.680660000000     0.463340000000     0.158718   
C88      C      0.602600000000     0.722280000000     0.488360000000     0.0763819  
C89      C      0.517820000000     0.724080000000     0.465470000000    -0.128436   
C90      C      0.527230000000     0.826280000000     0.469750000000    -0.0856123  
C91      C      0.601620000000     0.765980000000     0.491350000000    -0.0975194  
C92      C      0.551860000000     0.807500000000     0.495160000000     0.0274169  
C93      C      0.557910000000     0.766300000000     0.482190000000     0.0499313  
C94      C      0.520050000000     0.863310000000     0.484330000000     0.0689571  
C95      C      0.558660000000     0.861440000000     0.549000000000     0.0728741  
C96      C      0.567110000000     0.825320000000     0.535270000000    -0.086836   
C97      C      0.475190000000     0.636300000000     0.444750000000    -0.228737   
C98      C      0.529110000000     0.182730000000     0.644800000000     0.153977   
C99      C      0.446490000000     0.146970000000     0.619240000000     0.0691071  
C100     C      0.532850000000     0.228870000000     0.645770000000    -0.126881   
C101     C      0.549950000000     0.324320000000     0.608100000000    -0.0837777  
C102     C      0.449970000000     0.193310000000     0.618690000000    -0.0933915  
C103     C      0.503940000000     0.286690000000     0.620800000000     0.0270622  
C104     C      0.494740000000     0.235580000000     0.629630000000     0.0477237  
C105     C      0.557070000000     0.370510000000     0.595430000000     0.0694951  
C106     C      0.475160000000     0.344600000000     0.609310000000     0.070893   
C107     C      0.466860000000     0.298090000000     0.622510000000    -0.085205   
C108     C      0.573280000000     0.179740000000     0.661270000000    -0.224057   
C109     C      0.585940000000     0.051210000000     0.737450000000     0.153345   
C110     C      0.517790000000     0.062590000000     0.722840000000     0.0744804  
C111     C      0.578610000000     0.049240000000     0.780020000000    -0.128008   
C112     C      0.526770000000     0.012260000000     0.863320000000    -0.0850948  
C113     C      0.511040000000     0.062460000000     0.764750000000    -0.0991533  
C114     C      0.532380000000     0.052060000000     0.838180000000     0.0292602  
C115     C      0.540410000000     0.053910000000     0.793680000000     0.0510478  
C116     C      0.521400000000     0.012650000000     0.905760000000     0.0757676  
C117     C      0.526340000000     0.090350000000     0.898240000000     0.0759056  
C118     C      0.530640000000     0.090630000000     0.855790000000    -0.0871638  
C119     C      0.630960000000     0.051060000000     0.725140000000    -0.219895   
C120     C      0.494630000000     0.012180000000     0.399020000000     0.149275   
C121     C      0.552580000000     0.098150000000     0.401170000000     0.07431    
C122     C      0.503350000000     0.011910000000     0.357250000000    -0.128783   
C123     C      0.550390000000     0.017910000000     0.276660000000    -0.0857064  
C124     C      0.560680000000     0.098880000000     0.359280000000    -0.0987527  
C125     C      0.543850000000     0.054530000000     0.292770000000     0.0283781  
C126     C      0.537030000000     0.055120000000     0.337330000000     0.0498514  
C127     C      0.549040000000     0.013340000000     0.233840000000     0.0711245  
C128     C      0.536880000000     0.081490000000     0.223110000000     0.0746539  
C129     C      0.538810000000     0.087580000000     0.265560000000    -0.0872738  
C130     C      0.453400000000     0.965130000000     0.416950000000    -0.223401   
C131     C      0.540550000000     0.720280000000     0.930170000000     0.150295   
C132     C      0.498440000000     0.701500000000     0.992450000000     0.0809932  
C133     C      0.541670000000     0.766010000000     0.927250000000    -0.123806   
C134     C      0.573210000000     0.872380000000     0.956620000000    -0.0803082  
C135     C      0.497900000000     0.745210000000     0.989640000000    -0.0995537  
C136     C      0.527440000000     0.829380000000     0.960350000000     0.0246068  
C137     C      0.521410000000     0.779310000000     0.957930000000     0.0503565  
C138     C      0.580810000000     0.917410000000     0.970760000000     0.0646609  
C139     C      0.498290000000     0.878800000000     0.989070000000     0.0669687  
C140     C      0.489150000000     0.834010000000     0.974270000000    -0.0824571  
C141     C      0.565250000000     0.709000000000     0.897680000000    -0.221472   
C142     C      0.526930000000     0.207150000000     0.135240000000     0.1558     
C143     C      0.447160000000     0.160510000000     0.103750000000     0.0745424  
C144     C      0.518460000000     0.246000000000     0.140620000000    -0.127691   
C145     C      0.519970000000     0.336860000000     0.113250000000    -0.0834456  
C146     C      0.439410000000     0.200330000000     0.105920000000    -0.0970894  
C147     C      0.475600000000     0.292180000000     0.115610000000     0.0243247  
C148     C      0.476560000000     0.245080000000     0.122400000000     0.0495233  
C149     C      0.520690000000     0.379900000000     0.100990000000     0.0662235  
C150     C      0.434320000000     0.338010000000     0.094050000000     0.0632049  
C151     C      0.432130000000     0.293600000000     0.107140000000    -0.0811686  
C152     C      0.575010000000     0.212840000000     0.152440000000    -0.227479   
C153     C      0.888440000000     0.355810000000     0.476330000000     0.149517   
C154     C      0.856610000000     0.389790000000     0.520260000000     0.0754629  
C155     C      0.843360000000     0.310820000000     0.476420000000    -0.12449    
C156     C      0.752560000000     0.210800000000     0.492710000000    -0.0836151  
C157     C      0.813080000000     0.345440000000     0.522340000000    -0.100526   
C158     C      0.757930000000     0.256070000000     0.504070000000     0.0267613  
C159     C      0.805200000000     0.304490000000     0.500500000000     0.0478211  
C160     C      0.708560000000     0.166460000000     0.499070000000     0.0697466  
C161     C      0.676070000000     0.209730000000     0.529500000000     0.0724606  
C162     C      0.717320000000     0.254370000000     0.520710000000    -0.0873011  
C163     C      0.927210000000     0.360210000000     0.448880000000    -0.220411   
C164     C      0.210240000000     0.674550000000     0.624630000000     0.156555   
C165     C      0.243700000000     0.683740000000     0.559000000000     0.0751032  
C166     C      0.254270000000     0.715780000000     0.638840000000    -0.127497   
C167     C      0.328390000000     0.830050000000     0.627650000000    -0.0846553  
C168     C      0.288220000000     0.723270000000     0.573060000000    -0.097027   
C169     C      0.335130000000     0.789900000000     0.623760000000     0.0279834  
C170     C      0.292740000000     0.741380000000     0.612460000000     0.050626   
C171     C      0.368930000000     0.877630000000     0.629980000000     0.0736081  
C172     C      0.422500000000     0.845940000000     0.629220000000     0.0722821  
C173     C      0.382710000000     0.797950000000     0.625640000000    -0.0856647  
C174     C      0.171060000000     0.647800000000     0.655640000000    -0.22542    
C175     C      0.923740000000     0.604890000000     0.491320000000     0.161383   
C176     C      0.896260000000     0.578710000000     0.559700000000     0.0809145  
C177     C      0.883370000000     0.611230000000     0.481580000000    -0.13007    
C178     C      0.790280000000     0.626570000000     0.482070000000    -0.0847633  
C179     C      0.856250000000     0.584600000000     0.550590000000    -0.102127   
C180     C      0.799310000000     0.589630000000     0.497950000000     0.0260979  
C181     C      0.848480000000     0.598920000000     0.510770000000     0.0528188  
C182     C      0.741760000000     0.615380000000     0.474080000000     0.0675831  
C183     C      0.712990000000     0.532130000000     0.494580000000     0.0734349  
C184     C      0.760270000000     0.541840000000     0.502700000000    -0.0859011  
C185     C      0.955540000000     0.610950000000     0.456180000000    -0.233054   
C186     C      0.367770000000     0.531030000000     0.486300000000     0.150874   
C187     C      0.397110000000     0.580940000000     0.546260000000     0.0768672  
C188     C      0.333930000000     0.546800000000     0.477340000000    -0.13021    
C189     C      0.257040000000     0.564980000000     0.535790000000    -0.0878859  
C190     C      0.363870000000     0.596920000000     0.537740000000    -0.102887   
C191     C      0.286280000000     0.582040000000     0.501710000000     0.0275154  
C192     C      0.330730000000     0.578360000000     0.503890000000     0.0501253  
C193     C      0.209600000000     0.555850000000     0.531640000000     0.074606   
C194     C      0.220860000000     0.585990000000     0.462190000000     0.070472   
C195     C      0.268530000000     0.593880000000     0.464770000000    -0.0871971  
C196     C      0.369320000000     0.497560000000     0.455140000000    -0.221152   
C197     C      0.085910000000     0.646920000000     0.869130000000     0.148981   
C198     C      0.004710000000     0.578910000000     0.870460000000     0.0716259  
C199     C      0.083450000000     0.644340000000     0.825410000000    -0.125093   
C200     C      0.054720000000     0.634260000000     0.729840000000    -0.0848993  
C201     C      0.001550000000     0.575830000000     0.827640000000    -0.101457   
C202     C      0.041190000000     0.597020000000     0.760170000000     0.0251689  
C203     C      0.042000000000     0.606800000000     0.804760000000     0.0488887  
C204     C      0.050770000000     0.622730000000     0.687980000000     0.0659118  
C205     C      0.022620000000     0.539020000000     0.705770000000     0.0679009  
C206     C      0.025370000000     0.549090000000     0.747660000000    -0.0856849  
C207     C      0.132420000000     0.687310000000     0.889420000000    -0.220771   
C208     C      0.973090000000     0.560100000000     0.193730000000     0.153832   
C209     C      0.026850000000     0.528190000000     0.195570000000     0.0711578  
C210     C      0.969720000000     0.552790000000     0.237280000000    -0.124837   
C211     C      0.998780000000     0.565650000000     0.330220000000    -0.0804726  
C212     C      0.023790000000     0.520580000000     0.238170000000    -0.099041   
C213     C      0.996000000000     0.528510000000     0.306270000000     0.0245587  
C214     C      0.995350000000     0.533020000000     0.259940000000     0.0516222  
C215     C      0.007670000000     0.565370000000     0.373080000000     0.0643307  
C216     C      0.007970000000     0.490640000000     0.370180000000     0.0652094  
C217     C      0.999010000000     0.489760000000     0.327090000000    -0.080793   
C218     C      0.944430000000     0.581610000000     0.171770000000    -0.227447   
C219     C      0.877200000000     0.393140000000     0.964670000000     0.150807   
C220     C      0.903450000000     0.354690000000     0.017050000000     0.0737551  
C221     C      0.831870000000     0.348810000000     0.960640000000    -0.125593   
C222     C      0.762010000000     0.216410000000     0.980970000000    -0.0853922  
C223     C      0.859670000000     0.310260000000     0.012440000000    -0.0983268  
C224     C      0.772650000000     0.264530000000     0.987880000000     0.0284127  
C225     C      0.822680000000     0.307480000000     0.985220000000     0.0496171  
C226     C      0.715500000000     0.176360000000     0.989230000000     0.0715828  
C227     C      0.691290000000     0.230930000000     0.011820000000     0.0726563  
C228     C      0.736350000000     0.271470000000     0.002580000000    -0.0874237  
C229     C      0.884270000000     0.436060000000     0.936860000000    -0.223471   
C230     C      0.337000000000     0.912890000000     0.138260000000     0.15013    
C231     C      0.365550000000     0.868230000000     0.103460000000     0.0714542  
C232     C      0.293350000000     0.868390000000     0.146310000000    -0.124158   
C233     C      0.193330000000     0.774030000000     0.137100000000    -0.0838294  
C234     C      0.322370000000     0.824310000000     0.110390000000    -0.0955253  
C235     C      0.238790000000     0.776130000000     0.138730000000     0.0271428  
C236     C      0.285690000000     0.823510000000     0.132670000000     0.0480916  
C237     C      0.150010000000     0.728700000000     0.131170000000     0.0687944  
C238     C      0.195160000000     0.687600000000     0.132980000000     0.0753045  
C239     C      0.238600000000     0.731470000000     0.140900000000    -0.0852381  
C240     C      0.340940000000     0.959490000000     0.153550000000    -0.220617   
C241     C      0.707600000000     0.560350000000     0.967170000000     0.147511   
C242     C      0.694200000000     0.539320000000     0.038410000000     0.0702646  
C243     C      0.746370000000     0.550150000000     0.970400000000    -0.12147    
C244     C      0.841740000000     0.551950000000     0.986830000000    -0.0862745  
C245     C      0.733200000000     0.530520000000     0.042470000000    -0.0946743  
C246     C      0.802500000000     0.526260000000     0.012600000000     0.0253955  
C247     C      0.759650000000     0.534790000000     0.008240000000     0.0451284  
C248     C      0.883340000000     0.547910000000     0.992850000000     0.0689483  
C249     C      0.849620000000     0.492080000000     0.049020000000     0.0656517  
C250     C      0.806350000000     0.494600000000     0.043310000000    -0.082875   
C251     C      0.696030000000     0.576290000000     0.925190000000    -0.220635   
C252     C      0.200290000000     0.551350000000     0.965270000000     0.147409   
C253     C      0.213660000000     0.589500000000     0.030110000000     0.0768649  
C254     C      0.240600000000     0.544270000000     0.975580000000    -0.121901   
C255     C      0.310200000000     0.511710000000     0.022800000000    -0.0849976  
C256     C      0.253510000000     0.583740000000     0.040390000000    -0.0967588  
C257     C      0.311550000000     0.556540000000     0.025270000000     0.028266   
C258     C      0.267730000000     0.561030000000     0.013370000000     0.0482921  
C259     C      0.351260000000     0.508160000000     0.036100000000     0.0723851  
C260     C      0.394680000000     0.591900000000     0.055010000000     0.0718253  
C261     C      0.354220000000     0.596640000000     0.042370000000    -0.0858472  
C262     C      0.176380000000     0.538320000000     0.922290000000    -0.221908   
C263     C      0.897960000000     0.850690000000     0.597580000000     0.148223   
C264     C      0.851720000000     0.872860000000     0.549820000000     0.0703104  
C265     C      0.856940000000     0.802610000000     0.600810000000    -0.127621   
C266     C      0.725490000000     0.738980000000     0.595120000000    -0.087182   
C267     C      0.810950000000     0.825970000000     0.552960000000    -0.0991455  
C268     C      0.768170000000     0.741450000000     0.583250000000     0.027568   
C269     C      0.812990000000     0.790370000000     0.578860000000     0.0476068  
C270     C      0.681120000000     0.694780000000     0.592460000000     0.0737824  
C271     C      0.720320000000     0.654040000000     0.569080000000     0.0724002  
C272     C      0.765800000000     0.697960000000     0.571710000000    -0.0845147  
C273     C      0.945100000000     0.860070000000     0.620030000000    -0.227286   
C274     C      0.226010000000     0.141200000000     0.474430000000     0.151163   
C275     C      0.194390000000     0.194580000000     0.481000000000     0.0727757  
C276     C      0.270290000000     0.181670000000     0.461490000000    -0.125901   
C277     C      0.369020000000     0.274050000000     0.471740000000    -0.0850045  
C278     C      0.237860000000     0.234880000000     0.468790000000    -0.0980273  
C279     C      0.326690000000     0.273710000000     0.455530000000     0.0261296  
C280     C      0.277390000000     0.229340000000     0.460470000000     0.0488832  
C281     C      0.413140000000     0.318560000000     0.475690000000     0.0687056  
C282     C      0.375440000000     0.362070000000     0.445960000000     0.0672179  
C283     C      0.331360000000     0.318190000000     0.439990000000    -0.0864283  
C284     C      0.222110000000     0.091250000000     0.475350000000    -0.222896   
C285     C      0.728650000000     0.092780000000     0.587090000000     0.154504   
C286     C      0.712410000000     0.051280000000     0.523450000000     0.0770322  
C287     C      0.778870000000     0.111190000000     0.583630000000    -0.129046   
C288     C      0.858260000000     0.086000000000     0.589450000000    -0.0880913  
C289     C      0.761880000000     0.069750000000     0.519170000000    -0.100998   
C290     C      0.844050000000     0.102240000000     0.553150000000     0.0282832  
C291     C      0.795390000000     0.097670000000     0.550570000000     0.0504766  
C292     C      0.893880000000     0.073100000000     0.588380000000     0.0765428  
C293     C      0.907180000000     0.099010000000     0.518040000000     0.0732417  
C294     C      0.870710000000     0.111430000000     0.517710000000    -0.086697   
C295     C      0.713820000000     0.110710000000     0.622800000000    -0.223968   
C296     C      0.231390000000     0.073630000000     0.600390000000     0.151993   
C297     C      0.177290000000     0.990730000000     0.580930000000     0.0705552  
C298     C      0.270910000000     0.070640000000     0.586650000000    -0.127161   
C299     C      0.308570000000     0.984180000000     0.553700000000    -0.0825231  
C300     C      0.215890000000     0.986950000000     0.567080000000    -0.0996887  
C301     C      0.304200000000     0.026340000000     0.549810000000     0.0277688  
C302     C      0.263070000000     0.027900000000     0.567920000000     0.0474352  
C303     C      0.350820000000     0.986000000000     0.541310000000     0.0759169  
C304     C      0.382410000000     0.068510000000     0.517780000000     0.0723248  
C305     C      0.340550000000     0.067880000000     0.529430000000    -0.0859399  
C306     C      0.242930000000     0.120080000000     0.621900000000    -0.219157   
C307     C      0.973280000000     0.852250000000     0.480910000000     0.154412   
C308     C      0.058390000000     0.911700000000     0.486610000000     0.0939043  
C309     C      0.984750000000     0.814930000000     0.477650000000    -0.127432   
C310     C      0.058880000000     0.768010000000     0.460600000000    -0.0866488  
C311     C      0.070640000000     0.875880000000     0.482280000000    -0.108936   
C312     C      0.046780000000     0.789230000000     0.490950000000     0.026244   
C313     C      0.033720000000     0.826900000000     0.480470000000     0.0524385  
C314     C      0.073840000000     0.734330000000     0.472420000000     0.0666513  
C315     C      0.066960000000     0.744580000000     0.543360000000     0.0714093  
C316     C      0.051700000000     0.778120000000     0.532630000000    -0.0853907  
C317     C      0.920180000000     0.837820000000     0.481490000000    -0.231781   
C318     C      0.974810000000     0.345390000000     0.607810000000     0.150218   
C319     C      0.061400000000     0.387880000000     0.604600000000     0.0726746  
C320     C      0.974510000000     0.300350000000     0.613610000000    -0.122708   
C321     C      0.995260000000     0.211910000000     0.635000000000    -0.0783062  
C322     C      0.061880000000     0.344220000000     0.610950000000    -0.0983776  
C323     C      0.018630000000     0.253000000000     0.608350000000     0.0240657  
C324     C      0.018070000000     0.299460000000     0.613010000000     0.046951   
C325     C      0.000680000000     0.170690000000     0.630260000000     0.0640266  
C326     C      0.049030000000     0.209370000000     0.572410000000     0.0702122  
C327     C      0.044690000000     0.250610000000     0.576370000000    -0.0845124  
C328     C      0.925990000000     0.343030000000     0.606750000000    -0.221306   
C329     C      0.029080000000     0.024760000000     0.720040000000     0.142344   
C330     C      0.108330000000     0.096470000000     0.719800000000     0.0775239  
C331     C      0.027150000000     0.030760000000     0.762310000000    -0.123796   
C332     C      0.036820000000     0.031510000000     0.854210000000    -0.0848091  
C333     C      0.107780000000     0.101740000000     0.762230000000    -0.0970668  
C334     C      0.064840000000     0.073400000000     0.829540000000     0.0286318  
C335     C      0.066660000000     0.068890000000     0.784120000000     0.0496967  
C336     C      0.036480000000     0.035660000000     0.896690000000     0.0742699  
C337     C      0.091740000000     0.121600000000     0.891950000000     0.0735539  
C338     C      0.091400000000     0.119110000000     0.848980000000    -0.0855331  
C339     C      0.983520000000     0.983100000000     0.699360000000    -0.197058   
C340     C      0.102390000000     0.069560000000     0.219580000000     0.158848   
C341     C      0.088210000000     0.136540000000     0.221970000000     0.0793262  
C342     C      0.106180000000     0.068170000000     0.262990000000    -0.127411   
C343     C      0.116450000000     0.071160000000     0.355730000000    -0.086015   
C344     C      0.094520000000     0.137510000000     0.264840000000    -0.0993751  
C345     C      0.094510000000     0.093640000000     0.331660000000     0.028799   
C346     C      0.100050000000     0.100860000000     0.286140000000     0.0522419  
C347     C      0.103580000000     0.056770000000     0.396520000000     0.0743937  
C348     C      0.052100000000     0.091170000000     0.391970000000     0.0735374  
C349     C      0.062790000000     0.104540000000     0.350750000000    -0.0851516  
C350     C      0.113280000000     0.035410000000     0.197220000000    -0.225318   
C351     C      0.706480000000     0.734360000000     0.062330000000     0.152058   
C352     C      0.715310000000     0.719260000000     0.992980000000     0.0787673  
C353     C      0.752620000000     0.777540000000     0.061700000000    -0.126938   
C354     C      0.829390000000     0.881950000000     0.038450000000    -0.0854613  
C355     C      0.761110000000     0.761600000000     0.991970000000    -0.101028   
C356     C      0.826330000000     0.839190000000     0.024450000000     0.027804   
C357     C      0.779660000000     0.791840000000     0.026160000000     0.0508383  
C358     C      0.873990000000     0.925880000000     0.039010000000     0.0756359  
C359     C      0.912300000000     0.886830000000     0.010450000000     0.0717568  
C360     C      0.868000000000     0.842160000000     0.009140000000    -0.0850063  
C361     C      0.678960000000     0.723010000000     0.101440000000    -0.21919    
C362     C      0.393260000000     0.352120000000     0.975760000000     0.159456   
C363     C      0.359290000000     0.403630000000     0.977750000000     0.0809088  
C364     C      0.354240000000     0.315100000000     0.997430000000    -0.12396    
C365     C      0.266670000000     0.237060000000     0.039620000000    -0.0871336  
C366     C      0.318540000000     0.366520000000     0.997360000000    -0.0931096  
C367     C      0.279020000000     0.286510000000     0.038580000000     0.0245691  
C368     C      0.317700000000     0.323130000000     0.011010000000     0.0502129  
C369     C      0.228790000000     0.202720000000     0.063150000000     0.0578473  
C370     C      0.213870000000     0.263880000000     0.085810000000     0.0732678  
C371     C      0.253490000000     0.300050000000     0.063970000000    -0.0856007  
C372     C      0.429400000000     0.340110000000     0.959330000000    -0.222962   
C373     C      0.906980000000     0.104250000000     0.126230000000     0.1546     
C374     C      0.872440000000     0.017480000000     0.124740000000     0.0780299  
C375     C      0.860260000000     0.098080000000     0.128320000000    -0.12425    
C376     C      0.763650000000     0.082900000000     0.096960000000    -0.0836575  
C377     C      0.825070000000     0.010470000000     0.125820000000    -0.0946895  
C378     C      0.768920000000     0.046650000000     0.119800000000     0.0280294  
C379     C      0.818410000000     0.051310000000     0.125580000000     0.0501779  
C380     C      0.717870000000     0.078660000000     0.090290000000     0.0739726  
C381     C      0.680890000000     0.003130000000     0.127980000000     0.0700667  
C382     C      0.726630000000     0.006490000000     0.135680000000    -0.0829872  
C383     C      0.950300000000     0.155960000000     0.130870000000    -0.21611    
C384     C      0.207700000000     0.041980000000     0.052860000000     0.153195   
C385     C      0.164950000000     0.985410000000     0.998500000000     0.0720282  
C386     C      0.249880000000     0.040350000000     0.046110000000    -0.129732   
C387     C      0.335480000000     0.060350000000     0.993520000000    -0.0860853  
C388     C      0.206400000000     0.982140000000     0.991980000000    -0.0966491  
C389     C      0.296470000000     0.015050000000     0.005960000000     0.026985   
C390     C      0.249930000000     0.011820000000     0.014630000000     0.0487619  
C391     C      0.382680000000     0.067760000000     0.995570000000     0.0727212  
C392     C      0.352870000000     0.985170000000     0.018500000000     0.0727954  
C393     C      0.304930000000     0.976400000000     0.016640000000    -0.0858644  
C394     C      0.208330000000     0.066750000000     0.091950000000    -0.225872   
C395     C      0.996260000000     0.725160000000     0.036030000000     0.160036   
C396     C      0.082300000000     0.761250000000     0.047520000000     0.0766586  
C397     C      0.998430000000     0.766500000000     0.052440000000    -0.124028   
C398     C      0.002100000000     0.841800000000     0.107450000000    -0.0832425  
C399     C      0.085160000000     0.801870000000     0.065650000000    -0.0962181  
C400     C      0.043970000000     0.846300000000     0.090380000000     0.0294059  
C401     C      0.042540000000     0.804130000000     0.069870000000     0.0499195  
C402     C      0.001690000000     0.883950000000     0.118610000000     0.0677844  
C403     C      0.085190000000     0.933130000000     0.103820000000     0.0757359  
C404     C      0.086610000000     0.892550000000     0.091120000000    -0.0827381  
C405     C      0.947610000000     0.685450000000     0.017890000000    -0.22367    
C406     C      0.142040000000     0.283380000000     0.010150000000     0.156      
C407     C      0.072000000000     0.255980000000     0.049900000000     0.0801567  
C408     C      0.159070000000     0.332100000000     0.021930000000    -0.128889   
C409     C      0.141240000000     0.417900000000     0.016150000000    -0.088081   
C410     C      0.088180000000     0.303380000000     0.062070000000    -0.103638   
C411     C      0.140780000000     0.392350000000     0.052580000000     0.0277822  
C412     C      0.132060000000     0.342150000000     0.048310000000     0.0517939  
C413     C      0.122530000000     0.449120000000     0.015670000000     0.0769869  
C414     C      0.114520000000     0.440150000000     0.088230000000     0.0724687  
C415     C      0.131390000000     0.406750000000     0.089680000000    -0.0859512  
C416     C      0.168880000000     0.275010000000     0.977500000000    -0.225329   
Co1      Co     0.048940000000     0.141000000000     0.088060000000     1.10857    
Co2      Co     0.060990000000     0.031430000000     0.033620000000     0.92339    
Co3      Co     0.122240000000     0.125080000000     0.032470000000     0.983716   
Co4      Co     0.018570000000     0.031450000000     0.093170000000     1.07837    
Co5      Co     0.081680000000     0.011690000000     0.530840000000     1.08336    
Co6      Co     0.996690000000     0.022930000000     0.604960000000     1.07145    
Co7      Co     0.983230000000     0.013130000000     0.506450000000     1.07968    
Co8      Co     0.102500000000     0.106090000000     0.576330000000     1.09035    
Co9      Co     0.039560000000     0.520170000000     0.980040000000     1.10592    
Co10     Co     0.021930000000     0.600990000000     0.052210000000     1.09214    
Co11     Co     0.009330000000     0.499590000000     0.072400000000     1.04812    
Co12     Co     0.104850000000     0.632230000000     0.016220000000     1.03322    
Co13     Co     0.048620000000     0.484090000000     0.511420000000     1.12869    
Co14     Co     0.063890000000     0.604980000000     0.552880000000     1.05757    
Co15     Co     0.980440000000     0.497810000000     0.572420000000     1.09717    
Co16     Co     0.094180000000     0.600630000000     0.489680000000     0.884756   
Co17     Co     0.483420000000     0.033080000000     0.093470000000     1.15867    
Co18     Co     0.572810000000     0.039190000000     0.032670000000     1.12708    
Co19     Co     0.542890000000     0.118820000000     0.034590000000     1.12693    
Co20     Co     0.526210000000     0.983090000000     0.092730000000     0.751212   
Co21     Co     0.486510000000     0.031010000000     0.590600000000     1.08709    
Co22     Co     0.561460000000     0.014000000000     0.511070000000     1.09062    
Co23     Co     0.538090000000     0.096100000000     0.543880000000     0.905623   
Co24     Co     0.561830000000     0.987990000000     0.608240000000     1.16022    
Co25     Co     0.543280000000     0.486610000000     0.005090000000     0.87255    
Co26     Co     0.546610000000     0.611210000000     0.056640000000     1.18165    
Co27     Co     0.483180000000     0.492460000000     0.039490000000     1.06776    
Co28     Co     0.572150000000     0.594120000000     0.963120000000     1.10412    
Co29     Co     0.554120000000     0.470220000000     0.500690000000     0.931925   
Co30     Co     0.527320000000     0.574390000000     0.561520000000     1.13837    
Co31     Co     0.459790000000     0.462620000000     0.538380000000     1.10135    
Co32     Co     0.587320000000     0.562000000000     0.495620000000     1.04764    
H1       H      0.424590000000     0.433730000000     0.665090000000     0.0212008  
H2       H      0.573710000000     0.470920000000     0.879640000000     0.0178494  
H3       H      0.580590000000     0.527720000000     0.746300000000     0.0492765  
H4       H      0.562990000000     0.455160000000     0.805630000000     0.0511887  
H5       H      0.426950000000     0.419590000000     0.740140000000     0.0479879  
H6       H      0.448710000000     0.490320000000     0.795860000000     0.0596319  
H7       H      0.576820000000     0.542250000000     0.672530000000     0.0292764  
H8       H      0.466810000000     0.549300000000     0.878380000000     0.0949841  
H9       H      0.414790000000     0.497580000000     0.854630000000     0.0723664  
H10      H      0.436590000000     0.490690000000     0.905470000000     0.0988073  
H11      H      0.539480000000     0.585090000000     0.377350000000     0.0272942  
H12      H      0.478200000000     0.459030000000     0.161170000000     0.0299736  
H13      H      0.517610000000     0.443140000000     0.300740000000     0.0502329  
H14      H      0.472290000000     0.447840000000     0.235570000000     0.054242   
H15      H      0.535840000000     0.588280000000     0.302190000000     0.0494578  
H16      H      0.595100000000     0.593560000000     0.252170000000     0.0606624  
H17      H      0.521170000000     0.440990000000     0.375940000000     0.02654    
H18      H      0.606170000000     0.643070000000     0.162420000000     0.0808776  
H19      H      0.646540000000     0.633670000000     0.197920000000     0.0701675  
H20      H      0.632480000000     0.607030000000     0.147540000000     0.0909503  
H21      H      0.502000000000     0.877840000000     0.463520000000     0.0187338  
H22      H      0.635630000000     0.722260000000     0.499360000000     0.0244761  
H23      H      0.584750000000     0.810720000000     0.556440000000     0.0491049  
H24      H      0.633910000000     0.798430000000     0.503400000000     0.0521341  
H25      H      0.514130000000     0.812880000000     0.438680000000     0.0477487  
H26      H      0.484060000000     0.723710000000     0.456760000000     0.060208   
H27      H      0.571390000000     0.873910000000     0.580390000000     0.0208383  
H28      H      0.445360000000     0.622400000000     0.466490000000     0.0876387  
H29      H      0.462140000000     0.647150000000     0.415690000000     0.073453   
H30      H      0.482390000000     0.606490000000     0.437790000000     0.0904966  
H31      H      0.592490000000     0.397480000000     0.584170000000     0.0247709  
H32      H      0.412730000000     0.116040000000     0.607120000000     0.0260865  
H33      H      0.431190000000     0.271000000000     0.633110000000     0.0465084  
H34      H      0.418880000000     0.196250000000     0.606700000000     0.0479336  
H35      H      0.579950000000     0.317660000000     0.605740000000     0.0478027  
H36      H      0.566670000000     0.260050000000     0.657430000000     0.0582523  
H37      H      0.444790000000     0.351120000000     0.609940000000     0.0215295  
H38      H      0.599850000000     0.191630000000     0.636540000000     0.0882464  
H39      H      0.592080000000     0.204750000000     0.687730000000     0.0717234  
H40      H      0.563320000000     0.142080000000     0.671620000000     0.0953598  
H41      H      0.518450000000     0.981920000000     0.924610000000     0.0302808  
H42      H      0.492140000000     0.066900000000     0.701780000000     0.0289634  
H43      H      0.534370000000     0.121730000000     0.837070000000     0.0496809  
H44      H      0.481720000000     0.067260000000     0.774420000000     0.0549343  
H45      H      0.527070000000     0.981390000000     0.850340000000     0.0522813  
H46      H      0.603140000000     0.045010000000     0.802550000000     0.0609981  
H47      H      0.526710000000     0.121740000000     0.910960000000     0.0209552  
H48      H      0.648470000000     0.078330000000     0.699760000000     0.0834587  
H49      H      0.658410000000     0.060400000000     0.751380000000     0.0692308  
H50      H      0.620590000000     0.013900000000     0.714550000000     0.0808121  
H51      H      0.552630000000     0.983660000000     0.222330000000     0.025927   
H52      H      0.573310000000     0.132580000000     0.417450000000     0.0253003  
H53      H      0.533420000000     0.116170000000     0.276910000000     0.0502008  
H54      H      0.586170000000     0.133290000000     0.344400000000     0.0530593  
H55      H      0.554940000000     0.992020000000     0.297010000000     0.0493282  
H56      H      0.482720000000     0.978270000000     0.339870000000     0.060181   
H57      H      0.530140000000     0.106230000000     0.203140000000     0.0258014  
H58      H      0.432520000000     0.973330000000     0.438230000000     0.0955562  
H59      H      0.427320000000     0.940780000000     0.392420000000     0.0732303  
H60      H      0.468720000000     0.944290000000     0.434220000000     0.0924797  
H61      H      0.617330000000     0.949250000000     0.969820000000     0.0313504  
H62      H      0.481960000000     0.677860000000     0.019070000000     0.018713   
H63      H      0.452780000000     0.802210000000     0.976460000000     0.0487539  
H64      H      0.481750000000     0.753460000000     0.014210000000     0.0524253  
H65      H      0.603870000000     0.870640000000     0.945890000000     0.0488674  
H66      H      0.559420000000     0.791630000000     0.901960000000     0.0577591  
H67      H      0.467960000000     0.879660000000     0.001720000000     0.0315605  
H68      H      0.539050000000     0.672950000000     0.883690000000     0.0831831  
H69      H      0.578830000000     0.737460000000     0.872560000000     0.0699828  
H70      H      0.596690000000     0.706620000000     0.912180000000     0.0763871  
H71      H      0.556450000000     0.412720000000     0.098920000000     0.0297125  
H72      H      0.418640000000     0.127650000000     0.088490000000     0.0237709  
H73      H      0.396670000000     0.260630000000     0.109260000000     0.0465545  
H74      H      0.405830000000     0.196700000000     0.092050000000     0.0488561  
H75      H      0.555030000000     0.339130000000     0.118190000000     0.0471744  
H76      H      0.546090000000     0.277890000000     0.157350000000     0.0585073  
H77      H      0.400370000000     0.337370000000     0.085760000000     0.0310885  
H78      H      0.602280000000     0.229690000000     0.128180000000     0.0899644  
H79      H      0.589590000000     0.237430000000     0.179520000000     0.073184   
H80      H      0.571350000000     0.176910000000     0.161920000000     0.0946468  
H81      H      0.705490000000     0.132440000000     0.489760000000     0.0209076  
H82      H      0.859850000000     0.419150000000     0.538780000000     0.0157308  
H83      H      0.716250000000     0.287000000000     0.527340000000     0.0472399  
H84      H      0.787010000000     0.344020000000     0.542860000000     0.049478   
H85      H      0.781950000000     0.208820000000     0.479720000000     0.0470693  
H86      H      0.838620000000     0.281200000000     0.457590000000     0.0570147  
H87      H      0.646580000000     0.211020000000     0.543430000000     0.0171181  
H88      H      0.954840000000     0.355330000000     0.468020000000     0.080138   
H89      H      0.911660000000     0.331730000000     0.424670000000     0.0702408  
H90      H      0.945820000000     0.397000000000     0.433400000000     0.084035   
H91      H      0.362130000000     0.908010000000     0.630710000000     0.0292617  
H92      H      0.241070000000     0.673040000000     0.527190000000     0.0272302  
H93      H      0.389100000000     0.767580000000     0.622790000000     0.0497388  
H94      H      0.317770000000     0.741790000000     0.552060000000     0.0557325  
H95      H      0.291940000000     0.825020000000     0.626270000000     0.0524008  
H96      H      0.258140000000     0.728740000000     0.670030000000     0.0601608  
H97      H      0.458810000000     0.850760000000     0.628960000000     0.0237492  
H98      H      0.153740000000     0.607340000000     0.652620000000     0.0972595  
H99      H      0.185890000000     0.657190000000     0.688050000000     0.0734826  
H100     H      0.142830000000     0.658520000000     0.650130000000     0.0983424  
H101     H      0.735280000000     0.644900000000     0.463610000000     0.0305526  
H102     H      0.899980000000     0.566120000000     0.590800000000     0.0220479  
H103     H      0.766240000000     0.512120000000     0.513610000000     0.0517211  
H104     H      0.829690000000     0.574890000000     0.573900000000     0.0547104  
H105     H      0.820110000000     0.663840000000     0.477470000000     0.0469889  
H106     H      0.876800000000     0.621440000000     0.450370000000     0.0606512  
H107     H      0.683870000000     0.494510000000     0.499610000000     0.0257593  
H108     H      0.956910000000     0.576770000000     0.453100000000     0.102105   
H109     H      0.942030000000     0.619010000000     0.425980000000     0.0752889  
H110     H      0.993090000000     0.641740000000     0.462560000000     0.106568   
H111     H      0.187520000000     0.540650000000     0.558510000000     0.0312264  
H112     H      0.420940000000     0.595240000000     0.573800000000     0.0199776  
H113     H      0.290490000000     0.607080000000     0.437810000000     0.0479833  
H114     H      0.362140000000     0.621440000000     0.558970000000     0.0531887  
H115     H      0.269440000000     0.555170000000     0.564740000000     0.0515189  
H116     H      0.308100000000     0.532160000000     0.450990000000     0.0594011  
H117     H      0.207050000000     0.593770000000     0.433020000000     0.0212229  
H118     H      0.355860000000     0.460240000000     0.469080000000     0.0887106  
H119     H      0.346100000000     0.493490000000     0.426690000000     0.0704138  
H120     H      0.407300000000     0.512510000000     0.445540000000     0.0961795  
H121     H      0.060750000000     0.652420000000     0.665340000000     0.0301949  
H122     H      0.972530000000     0.552450000000     0.886630000000     0.0239703  
H123     H      0.015180000000     0.519340000000     0.770240000000     0.0473344  
H124     H      0.967990000000     0.547700000000     0.812630000000     0.0526332  
H125     H      0.067070000000     0.671750000000     0.738300000000     0.0483963  
H126     H      0.114670000000     0.669780000000     0.807810000000     0.0574707  
H127     H      0.010100000000     0.501360000000     0.697610000000     0.0236702  
H128     H      0.153470000000     0.671290000000     0.905190000000     0.0827291  
H129     H      0.156260000000     0.715520000000     0.866640000000     0.070587   
H130     H      0.123630000000     0.706050000000     0.912640000000     0.0856623  
H131     H      0.011380000000     0.596110000000     0.389830000000     0.0239477  
H132     H      0.050160000000     0.517880000000     0.181150000000     0.0257188  
H133     H      0.995940000000     0.459510000000     0.310080000000     0.0466485  
H134     H      0.045220000000     0.506260000000     0.254080000000     0.0527289  
H135     H      0.996860000000     0.596430000000     0.315840000000     0.0477426  
H136     H      0.947090000000     0.562500000000     0.253470000000     0.0580053  
H137     H      0.011910000000     0.461020000000     0.384720000000     0.0180009  
H138     H      0.918330000000     0.555650000000     0.148140000000     0.0936894  
H139     H      0.923210000000     0.589050000000     0.193290000000     0.0737816  
H140     H      0.969770000000     0.616840000000     0.156040000000     0.101334   
H141     H      0.708430000000     0.139530000000     0.984100000000     0.0295006  
H142     H      0.930270000000     0.355020000000     0.039820000000     0.0232759  
H143     H      0.743500000000     0.308090000000     0.008760000000     0.050753   
H144     H      0.853720000000     0.279020000000     0.032080000000     0.0535526  
H145     H      0.789640000000     0.209830000000     0.969990000000     0.0507865  
H146     H      0.803170000000     0.346790000000     0.939250000000     0.0588972  
H147     H      0.664720000000     0.238310000000     0.024080000000     0.0212465  
H148     H      0.917530000000     0.449490000000     0.919020000000     0.0864098  
H149     H      0.852830000000     0.426090000000     0.914370000000     0.0713246  
H150     H      0.888710000000     0.466540000000     0.955770000000     0.0953839  
H151     H      0.116070000000     0.728940000000     0.125700000000     0.0248695  
H152     H      0.392380000000     0.865800000000     0.086240000000     0.0278045  
H153     H      0.272300000000     0.730630000000     0.144920000000     0.0491637  
H154     H      0.317760000000     0.791130000000     0.097430000000     0.0520425  
H155     H      0.191120000000     0.807220000000     0.136300000000     0.0461209  
H156     H      0.265460000000     0.868860000000     0.163470000000     0.0571507  
H157     H      0.197100000000     0.654540000000     0.129650000000     0.0240585  
H158     H      0.346670000000     0.985480000000     0.127180000000     0.096703   
H159     H      0.307520000000     0.952460000000     0.168650000000     0.0707541  
H160     H      0.372090000000     0.977270000000     0.176610000000     0.0962011  
H161     H      0.912450000000     0.569520000000     0.971920000000     0.0278805  
H162     H      0.675080000000     0.534810000000     0.066310000000     0.0272924  
H163     H      0.776670000000     0.472580000000     0.063470000000     0.046547   
H164     H      0.742600000000     0.520800000000     0.072790000000     0.0504689  
H165     H      0.841940000000     0.577270000000     0.962950000000     0.045647   
H166     H      0.765390000000     0.553340000000     0.942890000000     0.0553827  
H167     H      0.852190000000     0.469320000000     0.074120000000     0.0214127  
H168     H      0.697780000000     0.612160000000     0.927620000000     0.0822105  
H169     H      0.721990000000     0.580690000000     0.901710000000     0.068778   
H170     H      0.658650000000     0.548510000000     0.913800000000     0.0871351  
H171     H      0.348630000000     0.472790000000     0.033250000000     0.0291201  
H172     H      0.204360000000     0.606430000000     0.053530000000     0.0361606  
H173     H      0.356630000000     0.631880000000     0.045500000000     0.0483671  
H174     H      0.272800000000     0.596620000000     0.070110000000     0.0536203  
H175     H      0.277460000000     0.479410000000     0.011100000000     0.047467   
H176     H      0.251770000000     0.527320000000     0.953750000000     0.0568791  
H177     H      0.426960000000     0.623950000000     0.067590000000     0.0193892  
H178     H      0.173230000000     0.569530000000     0.908240000000     0.0808634  
H179     H      0.197350000000     0.529460000000     0.901660000000     0.0697791  
H180     H      0.139000000000     0.505940000000     0.923700000000     0.0804343  
H181     H      0.648810000000     0.695330000000     0.600580000000     0.0216031  
H182     H      0.847360000000     0.898970000000     0.529550000000     0.023096   
H183     H      0.798260000000     0.698460000000     0.562590000000     0.049256   
H184     H      0.777590000000     0.817660000000     0.535170000000     0.0535328  
H185     H      0.726070000000     0.771700000000     0.604840000000     0.0494138  
H186     H      0.859070000000     0.774930000000     0.620620000000     0.0589605  
H187     H      0.719280000000     0.621480000000     0.558420000000     0.0298224  
H188     H      0.953160000000     0.884430000000     0.646500000000     0.08961    
H189     H      0.943080000000     0.825600000000     0.632440000000     0.0739483  
H190     H      0.975830000000     0.878130000000     0.598910000000     0.104885   
H191     H      0.444360000000     0.317650000000     0.490460000000     0.0257207  
H192     H      0.165840000000     0.201910000000     0.488300000000     0.0263838  
H193     H      0.300530000000     0.319710000000     0.425270000000     0.0473338  
H194     H      0.240940000000     0.270690000000     0.468620000000     0.0503861  
H195     H      0.367700000000     0.240900000000     0.484160000000     0.0471423  
H196     H      0.299630000000     0.176060000000     0.453300000000     0.0574765  
H197     H      0.376860000000     0.396090000000     0.435830000000     0.020891   
H198     H      0.186900000000     0.063450000000     0.460530000000     0.0849637  
H199     H      0.252020000000     0.091600000000     0.459110000000     0.0710036  
H200     H      0.224250000000     0.079540000000     0.507870000000     0.0889452  
H201     H      0.901780000000     0.057830000000     0.616590000000     0.0196178  
H202     H      0.687880000000     0.027390000000     0.499150000000     0.0208284  
H203     H      0.861070000000     0.124690000000     0.489220000000     0.0479918  
H204     H      0.773150000000     0.058360000000     0.493030000000     0.0530495  
H205     H      0.838770000000     0.078530000000     0.617560000000     0.0490927  
H206     H      0.804920000000     0.134190000000     0.607620000000     0.0573034  
H207     H      0.925330000000     0.103790000000     0.489550000000     0.0247512  
H208     H      0.698230000000     0.081000000000     0.646690000000     0.0851427  
H209     H      0.745370000000     0.143390000000     0.637640000000     0.0700502  
H210     H      0.686130000000     0.120960000000     0.612160000000     0.0956189  
H211     H      0.354220000000     0.953670000000     0.547390000000     0.0312712  
H212     H      0.141110000000     0.958510000000     0.577380000000     0.0170603  
H213     H      0.337660000000     0.100530000000     0.523940000000     0.0453177  
H214     H      0.208110000000     0.952690000000     0.553830000000     0.0504604  
H215     H      0.281080000000     0.950890000000     0.568560000000     0.0505639  
H216     H      0.307700000000     0.101860000000     0.590300000000     0.0582998  
H217     H      0.411070000000     0.102450000000     0.504530000000     0.0228292  
H218     H      0.216530000000     0.111990000000     0.646100000000     0.0834794  
H219     H      0.280430000000     0.138440000000     0.636670000000     0.0699322  
H220     H      0.241130000000     0.146400000000     0.598760000000     0.0805521  
H221     H      0.082170000000     0.717630000000     0.448120000000     0.0237119  
H222     H      0.088120000000     0.949030000000     0.491910000000    -0.0195485  
H223     H      0.043810000000     0.795360000000     0.556750000000     0.0516318  
H224     H      0.108800000000     0.885940000000     0.484550000000     0.0543175  
H225     H      0.056720000000     0.777300000000     0.428170000000     0.0488449  
H226     H      0.955910000000     0.776660000000     0.476180000000     0.0605848  
H227     H      0.069370000000     0.735980000000     0.575960000000     0.0304856  
H228     H      0.914290000000     0.867980000000     0.469140000000     0.0881941  
H229     H      0.896530000000     0.804230000000     0.463180000000     0.0752237  
H230     H      0.908720000000     0.829530000000     0.513870000000     0.0805856  
H231     H      0.983310000000     0.139950000000     0.651880000000     0.0232406  
H232     H      0.096550000000     0.421220000000     0.601280000000     0.0258361  
H233     H      0.062210000000     0.280930000000     0.554400000000     0.0489531  
H234     H      0.096570000000     0.345270000000     0.611730000000     0.052374   
H235     H      0.974310000000     0.212220000000     0.659900000000     0.046955   
H236     H      0.940230000000     0.265870000000     0.615930000000     0.0578632  
H237     H      0.070140000000     0.210110000000     0.547130000000     0.0307169  
H238     H      0.916580000000     0.351120000000     0.574860000000     0.0876965  
H239     H      0.895930000000     0.306180000000     0.616250000000     0.0702757  
H240     H      0.927700000000     0.370500000000     0.627970000000     0.0838435  
H241     H      0.015130000000     0.002030000000     0.914450000000     0.0331635  
H242     H      0.140880000000     0.123020000000     0.704110000000     0.0166542  
H243     H      0.112330000000     0.152870000000     0.831410000000     0.0479929  
H244     H      0.139870000000     0.131280000000     0.777600000000     0.0511301  
H245     H      0.016430000000     0.995050000000     0.841410000000     0.0493751  
H246     H      0.993960000000     0.006040000000     0.777870000000     0.0590101  
H247     H      0.114020000000     0.157300000000     0.906040000000     0.0220353  
H248     H      0.992290000000     0.956230000000     0.687490000000     0.0822001  
H249     H      0.953340000000     0.962670000000     0.720820000000     0.0639113  
H250     H      0.969620000000     0.997640000000     0.673360000000     0.0414983  
H251     H      0.119560000000     0.037400000000     0.413410000000     0.0179394  
H252     H      0.081040000000     0.164090000000     0.207280000000     0.0192547  
H253     H      0.044130000000     0.121120000000     0.333680000000     0.049417   
H254     H      0.092620000000     0.165620000000     0.281140000000     0.0518683  
H255     H      0.142420000000     0.063340000000     0.343040000000     0.0474337  
H256     H      0.111790000000     0.040010000000     0.278370000000     0.0596869  
H257     H      0.026530000000     0.099360000000     0.405090000000     0.0269415  
H258     H      0.135140000000     0.054200000000     0.169860000000     0.0968935  
H259     H      0.134280000000     0.022380000000     0.217460000000     0.0717627  
H260     H      0.078390000000     0.002450000000     0.187390000000     0.0953384  
H261     H      0.875020000000     0.958010000000     0.050810000000     0.0299093  
H262     H      0.702530000000     0.697440000000     0.965210000000     0.0159954  
H263     H      0.866820000000     0.809850000000     0.997700000000     0.048831   
H264     H      0.781160000000     0.771360000000     0.963960000000     0.0517433  
H265     H      0.797580000000     0.881380000000     0.049350000000     0.0501746  
H266     H      0.767320000000     0.800450000000     0.088780000000     0.0598448  
H267     H      0.944350000000     0.887460000000     0.999990000000     0.0321697  
H268     H      0.673940000000     0.687930000000     0.115030000000     0.0848003  
H269     H      0.698740000000     0.751790000000     0.125140000000     0.0686574  
H270     H      0.642640000000     0.719520000000     0.094490000000     0.0752658  
H271     H      0.219600000000     0.164900000000     0.060700000000     0.00793227 
H272     H      0.360800000000     0.438470000000     0.971270000000     0.0224365  
H273     H      0.262660000000     0.337960000000     0.066050000000     0.0515657  
H274     H      0.289290000000     0.373150000000     0.003470000000     0.0469502  
H275     H      0.283850000000     0.223400000000     0.020740000000     0.0437858  
H276     H      0.354530000000     0.281470000000     0.004960000000     0.056767   
H277     H      0.192920000000     0.275090000000     0.102790000000     0.0223122  
H278     H      0.456320000000     0.343440000000     0.984560000000     0.0864062  
H279     H      0.410490000000     0.301550000000     0.948540000000     0.0708574  
H280     H      0.448950000000     0.365160000000     0.933160000000     0.0867647  
H281     H      0.716060000000     0.107490000000     0.071910000000     0.031226   
H282     H      0.876010000000     0.985230000000     0.122510000000     0.0255266  
H283     H      0.728690000000     0.977770000000     0.153860000000     0.048621   
H284     H      0.793980000000     0.973410000000     0.124450000000     0.0516164  
H285     H      0.794570000000     0.114120000000     0.083020000000     0.050433   
H286     H      0.856720000000     0.130210000000     0.131370000000     0.0590469  
H287     H      0.648980000000     0.971180000000     0.140130000000     0.0257715  
H288     H      0.960820000000     0.173280000000     0.099740000000     0.078238   
H289     H      0.941270000000     0.179410000000     0.148560000000     0.068921   
H290     H      0.982150000000     0.155700000000     0.146970000000     0.0721692  
H291     H      0.412250000000     0.104240000000     0.987770000000     0.0209928  
H292     H      0.132660000000     0.964480000000     0.978460000000     0.0295697  
H293     H      0.275380000000     0.940880000000     0.026430000000     0.0498908  
H294     H      0.205110000000     0.958630000000     0.968070000000     0.0536593  
H295     H      0.329910000000     0.090880000000     0.984770000000     0.0494731  
H296     H      0.282670000000     0.061050000000     0.065730000000     0.0602407  
H297     H      0.358590000000     0.955290000000     0.029400000000     0.0298456  
H298     H      0.171860000000     0.059100000000     0.100250000000     0.102443   
H299     H      0.223340000000     0.053860000000     0.118440000000     0.071224   
H300     H      0.233710000000     0.106890000000     0.088980000000     0.0800694  
H301     H      0.967560000000     0.879860000000     0.127720000000     0.0308896  
H302     H      0.115580000000     0.759540000000     0.047450000000     0.0177308  
H303     H      0.120400000000     0.898850000000     0.079330000000     0.050304   
H304     H      0.120470000000     0.829730000000     0.078090000000     0.0492637  
H305     H      0.968960000000     0.806470000000     0.110230000000     0.0501365  
H306     H      0.965440000000     0.768680000000     0.051810000000     0.0601997  
H307     H      0.118600000000     0.968450000000     0.102280000000     0.0241398  
H308     H      0.926890000000     0.658570000000     0.042680000000     0.0932185  
H309     H      0.925050000000     0.701140000000     0.004810000000     0.0721179  
H310     H      0.952790000000     0.665580000000     0.993150000000     0.0854391  
H311     H      0.117610000000     0.463200000000     0.985770000000     0.020395   
H312     H      0.037720000000     0.227570000000     0.062010000000     0.0030553  
H313     H      0.131450000000     0.388050000000     0.118660000000     0.0483898  
H314     H      0.064820000000     0.309750000000     0.080650000000     0.0525652  
H315     H      0.148670000000     0.408350000000     0.986890000000     0.0485123  
H316     H      0.191880000000     0.362260000000     0.009130000000     0.05598    
H317     H      0.103290000000     0.447410000000     0.116670000000     0.0230424  
H318     H      0.142350000000     0.248330000000     0.954500000000     0.0839258  
H319     H      0.194210000000     0.309710000000     0.961050000000     0.0713239  
H320     H      0.190710000000     0.259340000000     0.991940000000     0.0908312  
N1       N      0.519640000000     0.492510000000     0.880220000000    -0.218429   
N2       N      0.500010000000     0.490060000000     0.663550000000    -0.203979   
N3       N      0.538660000000     0.533440000000     0.163020000000    -0.226854   
N4       N      0.532130000000     0.513500000000     0.382120000000    -0.203551   
N5       N      0.560600000000     0.679230000000     0.478370000000    -0.219495   
N6       N      0.536360000000     0.881270000000     0.523510000000    -0.206413   
N7       N      0.487060000000     0.142780000000     0.628300000000    -0.201762   
N8       N      0.519210000000     0.379730000000     0.594000000000    -0.200252   
N9       N      0.553250000000     0.054680000000     0.708840000000    -0.231499   
N10      N      0.523370000000     0.052470000000     0.923190000000    -0.207101   
N11      N      0.521730000000     0.054940000000     0.421450000000    -0.221591   
N12      N      0.540280000000     0.043670000000     0.207400000000    -0.205705   
N13      N      0.521490000000     0.689870000000     0.964490000000    -0.226682   
N14      N      0.544360000000     0.919570000000     0.989430000000    -0.182592   
N15      N      0.491960000000     0.165580000000     0.114830000000    -0.21956    
N16      N      0.478550000000     0.380210000000     0.089240000000    -0.185446   
N17      N      0.895240000000     0.394640000000     0.499640000000    -0.224299   
N18      N      0.671650000000     0.166050000000     0.519000000000    -0.204048   
N19      N      0.203720000000     0.661850000000     0.583250000000    -0.216358   
N20      N      0.415620000000     0.885680000000     0.629020000000    -0.205122   
N21      N      0.929000000000     0.587190000000     0.530300000000    -0.223841   
N22      N      0.703590000000     0.568930000000     0.482190000000    -0.189248   
N23      N      0.397930000000     0.546690000000     0.522100000000    -0.226302   
N24      N      0.191100000000     0.564570000000     0.494760000000    -0.209298   
N25      N      0.047610000000     0.611130000000     0.891590000000    -0.22183    
N26      N      0.034650000000     0.575400000000     0.676030000000    -0.203058   
N27      N      0.002360000000     0.548060000000     0.172980000000    -0.214109   
N28      N      0.014260000000     0.529260000000     0.392810000000    -0.199792   
N29      N      0.911930000000     0.396520000000     0.994780000000    -0.221018   
N30      N      0.681020000000     0.183670000000     0.005760000000    -0.20108    
N31      N      0.373740000000     0.912410000000     0.117380000000    -0.201725   
N32      N      0.152230000000     0.687350000000     0.124260000000    -0.208656   
N33      N      0.680250000000     0.552950000000     0.001170000000    -0.213166   
N34      N      0.888670000000     0.520390000000     0.025000000000    -0.197492   
N35      N      0.186380000000     0.573170000000     0.993310000000    -0.223907   
N36      N      0.393940000000     0.548480000000     0.050550000000    -0.205959   
N37      N      0.894720000000     0.886090000000     0.572450000000    -0.217542   
N38      N      0.678020000000     0.653260000000     0.577280000000    -0.205816   
N39      N      0.189190000000     0.148660000000     0.486700000000    -0.21948    
N40      N      0.415140000000     0.362300000000     0.465580000000    -0.208274   
N41      N      0.695330000000     0.059880000000     0.558190000000    -0.224845   
N42      N      0.915860000000     0.076680000000     0.552290000000    -0.208219   
N43      N      0.184110000000     0.034790000000     0.594080000000    -0.21802    
N44      N      0.388950000000     0.029100000000     0.526520000000    -0.202156   
N45      N      0.010510000000     0.899520000000     0.488710000000    -0.226477   
N46      N      0.076430000000     0.721720000000     0.513390000000    -0.193613   
N47      N      0.018390000000     0.388620000000     0.600140000000    -0.22197    
N48      N      0.028240000000     0.170000000000     0.599600000000    -0.201174   
N49      N      0.069870000000     0.058310000000     0.698780000000    -0.21911    
N50      N      0.065350000000     0.079960000000     0.915580000000    -0.207041   
N51      N      0.088260000000     0.100640000000     0.199540000000    -0.221616   
N52      N      0.070880000000     0.065800000000     0.414160000000    -0.20603    
N53      N      0.687350000000     0.705850000000     0.027240000000    -0.22717    
N54      N      0.915470000000     0.927790000000     0.026710000000    -0.20219    
N55      N      0.399020000000     0.398550000000     0.972430000000    -0.219326   
N56      N      0.200340000000     0.215220000000     0.083770000000    -0.205764   
N57      N      0.912410000000     0.063900000000     0.121580000000    -0.215371   
N58      N      0.676540000000     0.038620000000     0.104860000000    -0.202737   
N59      N      0.166790000000     0.017840000000     0.026440000000    -0.20393    
N60      N      0.391640000000     0.031460000000     0.010680000000    -0.203551   
N61      N      0.037840000000     0.721620000000     0.036520000000    -0.206889   
N62      N      0.041940000000     0.929460000000     0.113160000000    -0.187172   
N63      N      0.099320000000     0.245370000000     0.025670000000    -0.220743   
N64      N      0.105800000000     0.457140000000     0.050790000000    -0.204752   
O1       O      0.045010000000     0.164530000000     0.034970000000    -0.442796   
O2       O      0.999200000000     0.971320000000     0.026820000000    -0.405612   
O3       O      0.105930000000     0.117790000000     0.975510000000    -0.457875   
O4       O      0.971410000000     0.041130000000     0.122070000000    -0.394725   
O5       O      0.045400000000     0.044120000000     0.979520000000    -0.426927   
O6       O      0.981090000000     0.105070000000     0.085190000000    -0.450367   
O7       O      0.963940000000     0.002670000000     0.055560000000    -0.438585   
O8       O      0.118870000000     0.185540000000     0.022830000000    -0.41263    
O9       O      0.052980000000     0.120880000000     0.143890000000    -0.46748    
O10      O      0.086610000000     0.997080000000     0.012770000000    -0.381395   
O11      O      0.142600000000     0.135150000000     0.088160000000    -0.448441   
O12      O      0.999630000000     0.971100000000     0.119180000000    -0.400616   
O13      O      0.070800000000     0.007870000000     0.088860000000    -0.448956   
O14      O      0.120950000000     0.187470000000     0.096880000000    -0.42079    
O15      O      0.068950000000     0.062760000000     0.136650000000    -0.428389   
O16      O      0.139670000000     0.072050000000     0.034290000000    -0.460245   
O17      O      0.050210000000     0.085400000000     0.056910000000    -0.575935   
O18      O      0.068320000000     0.019800000000     0.472030000000    -0.440483   
O19      O      0.017350000000     0.093050000000     0.618790000000    -0.420391   
O20      O      0.969310000000     0.062260000000     0.519960000000    -0.444473   
O21      O      0.119880000000     0.124630000000     0.521350000000    -0.44939    
O22      O      0.943340000000     0.026750000000     0.579430000000    -0.461633   
O23      O      0.142720000000     0.071500000000     0.516620000000    -0.444252   
O24      O      0.064390000000     0.134550000000     0.568280000000    -0.455973   
O25      O      0.027770000000     0.058840000000     0.470160000000    -0.449267   
O26      O      0.102220000000     0.004990000000     0.585080000000    -0.435075   
O27      O      0.967400000000     0.953870000000     0.595320000000    -0.426362   
O28      O      0.987750000000     0.957350000000     0.485850000000    -0.425877   
O29      O      0.093800000000     0.096450000000     0.635710000000    -0.442844   
O30      O      0.044830000000     0.018480000000     0.637230000000    -0.45249    
O31      O      0.027110000000     0.951400000000     0.539710000000    -0.458598   
O32      O      0.149160000000     0.083120000000     0.588740000000    -0.439031   
O33      O      0.931200000000     0.960800000000     0.538000000000    -0.437835   
O34      O      0.041080000000     0.039760000000     0.554010000000    -0.526347   
O35      O      0.969950000000     0.478710000000     0.983890000000    -0.451622   
O36      O      0.000530000000     0.641630000000     0.055630000000    -0.444289   
O37      O      0.944220000000     0.501970000000     0.062280000000    -0.393931   
O38      O      0.087060000000     0.630130000000     0.956980000000    -0.452383   
O39      O      0.970000000000     0.563580000000     0.017670000000    -0.458159   
O40      O      0.022630000000     0.558820000000     0.946850000000    -0.47675    
O41      O      0.069730000000     0.672000000000     0.023340000000    -0.462739   
O42      O      0.977270000000     0.442870000000     0.038700000000    -0.457541   
O43      O      0.109000000000     0.553160000000     0.964810000000    -0.449909   
O44      O      0.988200000000     0.570820000000     0.105550000000    -0.384711   
O45      O      0.065020000000     0.491730000000     0.078060000000    -0.424609   
O46      O      0.132940000000     0.640460000000     0.068990000000    -0.457057   
O47      O      0.074850000000     0.643080000000     0.094270000000    -0.418019   
O48      O      0.058260000000     0.478930000000     0.010760000000    -0.457133   
O49      O      0.144150000000     0.608860000000     0.010490000000    -0.487725   
O50      O      0.037290000000     0.543850000000     0.115080000000    -0.457189   
O51      O      0.047820000000     0.559510000000     0.033260000000    -0.566816   
O52      O      0.979300000000     0.435730000000     0.504980000000    -0.461972   
O53      O      0.084770000000     0.670270000000     0.561210000000    -0.415964   
O54      O      0.958660000000     0.544680000000     0.569290000000    -0.453053   
O55      O      0.041580000000     0.573430000000     0.451860000000    -0.429551   
O56      O      0.004640000000     0.596850000000     0.523850000000    -0.434875   
O57      O      0.039170000000     0.502650000000     0.452750000000    -0.426142   
O58      O      0.082040000000     0.655210000000     0.496110000000    -0.441588   
O59      O      0.941970000000     0.472270000000     0.524100000000    -0.472794   
O60      O      0.114800000000     0.521520000000     0.517670000000    -0.487135   
O61      O      0.038790000000     0.597000000000     0.607070000000    -0.409133   
O62      O      0.985950000000     0.439170000000     0.583750000000    -0.448627   
O63      O      0.152820000000     0.633560000000     0.524920000000    -0.440602   
O64      O      0.119840000000     0.612640000000     0.583280000000    -0.439719   
O65      O      0.057240000000     0.460950000000     0.563840000000    -0.455807   
O66      O      0.125400000000     0.568710000000     0.465620000000    -0.421179   
O67      O      0.015230000000     0.521110000000     0.623720000000    -0.454627   
O68      O      0.044720000000     0.540240000000     0.536980000000    -0.554081   
O69      O      0.446360000000     0.011720000000     0.041710000000    -0.439627   
O70      O      0.592550000000     0.002110000000     0.005960000000    -0.41284    
O71      O      0.542700000000     0.098930000000     0.980400000000    -0.469273   
O72      O      0.452320000000     0.950110000000     0.093110000000    -0.419338   
O73      O      0.522550000000     0.022410000000     0.989200000000    -0.437673   
O74      O      0.428060000000     0.996070000000     0.120500000000    -0.441486   
O75      O      0.522310000000     0.955580000000     0.037320000000    -0.413423   
O76      O      0.472620000000     0.088060000000     0.023430000000    -0.450081   
O77      O      0.517450000000     0.058420000000     0.143000000000    -0.462878   
O78      O      0.620800000000     0.101140000000     0.004800000000    -0.393652   
O79      O      0.543070000000     0.146090000000     0.085730000000    -0.444287   
O80      O      0.592320000000     0.995230000000     0.102210000000    -0.417975   
O81      O      0.627620000000     0.063070000000     0.069690000000    -0.447091   
O82      O      0.469960000000     0.086910000000     0.097750000000    -0.407922   
O83      O      0.531990000000     0.999300000000     0.150150000000    -0.420731   
O84      O      0.610620000000     0.152980000000     0.039740000000    -0.45114    
O85      O      0.542210000000     0.060650000000     0.066280000000    -0.638011   
O86      O      0.443380000000     0.003710000000     0.543530000000    -0.428772   
O87      O      0.519630000000     0.944170000000     0.512660000000    -0.441289   
O88      O      0.544090000000     0.093580000000     0.484260000000    -0.409724   
O89      O      0.497450000000     0.939700000000     0.623080000000    -0.463472   
O90      O      0.508910000000     0.015670000000     0.483910000000    -0.458472   
O91      O      0.446160000000     0.967140000000     0.612420000000    -0.424739   
O92      O      0.555150000000     0.940040000000     0.571000000000    -0.465949   
O93      O      0.471570000000     0.078200000000     0.528540000000    -0.449767   
O94      O      0.519150000000     0.046560000000     0.643620000000    -0.462331   
O95      O      0.612770000000     0.085530000000     0.505230000000    -0.42076    
O96      O      0.529450000000     0.112910000000     0.597980000000    -0.448059   
O97      O      0.627080000000     0.033860000000     0.595770000000    -0.471955   
O98      O      0.617080000000     0.010720000000     0.532490000000    -0.464171   
O99      O      0.451280000000     0.059900000000     0.610170000000    -0.38435    
O100     O      0.573230000000     0.025960000000     0.654290000000    -0.497641   
O101     O      0.603780000000     0.123570000000     0.555790000000    -0.442997   
O102     O      0.535570000000     0.023570000000     0.565020000000    -0.551302   
O103     O      0.481230000000     0.435560000000     0.984010000000    -0.455037   
O104     O      0.539940000000     0.648630000000     0.014420000000    -0.505654   
O105     O      0.435270000000     0.507170000000     0.048530000000    -0.438832   
O106     O      0.525050000000     0.542420000000     0.931200000000    -0.464654   
O107     O      0.477430000000     0.585510000000     0.061860000000    -0.460197   
O108     O      0.557950000000     0.498300000000     0.945130000000    -0.404438   
O109     O      0.533010000000     0.624660000000     0.951380000000    -0.450496   
O110     O      0.449940000000     0.479140000000     0.986450000000    -0.430702   
O111     O      0.606020000000     0.528280000000     0.025750000000    -0.431597   
O112     O      0.554930000000     0.583700000000     0.105820000000    -0.504408   
O113     O      0.445340000000     0.426610000000     0.059440000000    -0.381852   
O114     O      0.621620000000     0.650690000000     0.988250000000    -0.491456   
O115     O      0.615850000000     0.644280000000     0.054730000000    -0.475111   
O116     O      0.525570000000     0.456460000000     0.059380000000    -0.441968   
O117     O      0.623750000000     0.573360000000     0.969630000000    -0.412435   
O118     O      0.506510000000     0.506740000000     0.097530000000    -0.434329   
O119     O      0.534570000000     0.553660000000     0.016260000000    -0.538156   
O120     O      0.493210000000     0.408270000000     0.493060000000    -0.421129   
O121     O      0.521220000000     0.607820000000     0.514000000000    -0.469607   
O122     O      0.429980000000     0.496700000000     0.516100000000    -0.478639   
O123     O      0.551230000000     0.551860000000     0.444570000000    -0.438388   
O124     O      0.458590000000     0.547230000000     0.565280000000    -0.469921   
O125     O      0.545410000000     0.481130000000     0.443070000000    -0.448009   
O126     O      0.591760000000     0.627360000000     0.491410000000    -0.393948   
O127     O      0.450610000000     0.442480000000     0.482810000000    -0.451412   
O128     O      0.623930000000     0.518360000000     0.498090000000    -0.45596    
O129     O      0.532960000000     0.542580000000     0.609020000000    -0.473229   
O130     O      0.483920000000     0.421470000000     0.563180000000    -0.446269   
O131     O      0.627870000000     0.577860000000     0.547780000000    -0.41711    
O132     O      0.595360000000     0.617620000000     0.568240000000    -0.470233   
O133     O      0.562320000000     0.451780000000     0.556250000000    -0.416488   
O134     O      0.644550000000     0.590390000000     0.468110000000    -0.406504   
O135     O      0.461570000000     0.476860000000     0.598080000000    -0.426799   
O136     O      0.527710000000     0.519850000000     0.525080000000    -0.55542    


