data_structure

_audit_creation_method RASPA-1.0
_audit_creation_date 2023-5-19
_audit_author_name 'Poobodin Mano'

_cell_length_a    28.9241
_cell_length_b    32.139
_cell_length_c    35.3611
_cell_angle_alpha 90
_cell_angle_beta  90
_cell_angle_gamma 90
_cell_volume      32871.4

_symmetry_cell_setting          triclinic
_symmetry_space_group_name_Hall 'P 1'
_symmetry_space_group_name_H-M  'P 1'
_symmetry_Int_Tables_number     1

_symmetry_equiv_pos_as_xyz 'x,y,z'

loop_
_atom_site_label
_atom_site_type_symbol
_atom_site_fract_x
_atom_site_fract_y
_atom_site_fract_z
_atom_site_charge
C1       C      0.543950000000     0.472180000000     0.438890000000     0.411913   
C2       C      0.175620000000     0.132500000000     0.450750000000     0.413319   
C3       C      0.548840000000     0.143580000000     0.461000000000     0.411641   
C4       C      0.183270000000     0.456950000000     0.452650000000     0.412312   
C5       C      0.200960000000     0.486500000000     0.041770000000     0.411377   
C6       C      0.519990000000     0.106540000000     0.044830000000     0.414128   
C7       C      0.511080000000     0.487430000000     0.032880000000     0.410353   
C8       C      0.214140000000     0.100150000000     0.041840000000     0.411261   
C9       C      0.412680000000     0.385570000000     0.202590000000     0.411049   
C10      C      0.289180000000     0.224950000000     0.192920000000     0.408314   
C11      C      0.416460000000     0.208230000000     0.209790000000     0.417753   
C12      C      0.285870000000     0.397020000000     0.216190000000     0.413256   
C13      C      0.257430000000     0.360240000000     0.299150000000     0.410659   
C14      C      0.441360000000     0.243050000000     0.295880000000     0.411295   
C15      C      0.454160000000     0.354000000000     0.290990000000     0.413189   
C16      C      0.245780000000     0.237140000000     0.281360000000     0.415276   
C17      C      0.283160000000     0.154750000000     0.163370000000     0.015511   
C18      C      0.288410000000     0.137980000000     0.122770000000    -0.108836   
C19      C      0.242360000000     0.134000000000     0.101020000000     0.0181572  
C20      C      0.212950000000     0.180490000000     0.321170000000     0.0182646  
C21      C      0.201280000000     0.191650000000     0.362140000000    -0.108385   
C22      C      0.206230000000     0.153790000000     0.388300000000     0.016945   
C23      C      0.215370000000     0.447180000000     0.100690000000     0.0171543  
C24      C      0.250800000000     0.449360000000     0.132800000000    -0.109103   
C25      C      0.232710000000     0.427960000000     0.168470000000     0.0176008  
C26      C      0.498920000000     0.150280000000     0.099660000000     0.018133   
C27      C      0.460430000000     0.150160000000     0.129240000000    -0.110036   
C28      C      0.470830000000     0.180490000000     0.161440000000     0.0184495  
C29      C      0.487220000000     0.385480000000     0.349380000000     0.0195665  
C30      C      0.534320000000     0.385540000000     0.369760000000    -0.10944    
C31      C      0.532180000000     0.402020000000     0.410540000000     0.0165666  
C32      C      0.462700000000     0.204410000000     0.354040000000     0.0171877  
C33      C      0.503370000000     0.203640000000     0.381940000000    -0.109396   
C34      C      0.492990000000     0.175980000000     0.416160000000     0.0165914  
C35      C      0.230090000000     0.410420000000     0.348020000000     0.0234084  
C36      C      0.255850000000     0.397250000000     0.383970000000    -0.106161   
C37      C      0.249860000000     0.429570000000     0.415650000000     0.0159352  
C38      C      0.482100000000     0.437090000000     0.081240000000     0.0157034  
C39      C      0.451350000000     0.443940000000     0.116130000000    -0.109087   
C40      C      0.453530000000     0.407040000000     0.143780000000     0.0159844  
C41      C      0.543950000000     0.472180000000     0.938890000000     0.4119     
C42      C      0.175620000000     0.132500000000     0.950750000000     0.413327   
C43      C      0.548840000000     0.143580000000     0.961000000000     0.411724   
C44      C      0.183270000000     0.456950000000     0.952650000000     0.412244   
C45      C      0.200960000000     0.486500000000     0.541770000000     0.411391   
C46      C      0.519990000000     0.106540000000     0.544830000000     0.414212   
C47      C      0.511080000000     0.487430000000     0.532880000000     0.410363   
C48      C      0.214140000000     0.100150000000     0.541840000000     0.411275   
C49      C      0.412680000000     0.385570000000     0.702590000000     0.411048   
C50      C      0.289180000000     0.224950000000     0.692920000000     0.40818    
C51      C      0.416460000000     0.208230000000     0.709790000000     0.417751   
C52      C      0.285870000000     0.397020000000     0.716180000000     0.413352   
C53      C      0.257430000000     0.360240000000     0.799150000000     0.410659   
C54      C      0.441360000000     0.243050000000     0.795870000000     0.411403   
C55      C      0.454160000000     0.354000000000     0.790980000000     0.413295   
C56      C      0.245780000000     0.237140000000     0.781360000000     0.415403   
C57      C      0.283160000000     0.154750000000     0.663370000000     0.0155071  
C58      C      0.288410000000     0.137980000000     0.622770000000    -0.10884    
C59      C      0.242360000000     0.134000000000     0.601020000000     0.0181645  
C60      C      0.212950000000     0.180490000000     0.821170000000     0.018272   
C61      C      0.201280000000     0.191650000000     0.862140000000    -0.108393   
C62      C      0.206230000000     0.153790000000     0.888300000000     0.0169504  
C63      C      0.215370000000     0.447180000000     0.600690000000     0.0171856  
C64      C      0.250800000000     0.449360000000     0.632790000000    -0.109111   
C65      C      0.232710000000     0.427960000000     0.668470000000     0.0175801  
C66      C      0.498920000000     0.150280000000     0.599660000000     0.0181397  
C67      C      0.460430000000     0.150160000000     0.629240000000    -0.110037   
C68      C      0.470830000000     0.180490000000     0.661440000000     0.0184482  
C69      C      0.487220000000     0.385480000000     0.849380000000     0.0194788  
C70      C      0.534320000000     0.385540000000     0.869770000000    -0.109385   
C71      C      0.532180000000     0.402020000000     0.910540000000     0.0165608  
C72      C      0.462700000000     0.204410000000     0.854040000000     0.0172137  
C73      C      0.503370000000     0.203640000000     0.881930000000    -0.109417   
C74      C      0.492990000000     0.175980000000     0.916160000000     0.0166134  
C75      C      0.230090000000     0.410420000000     0.848020000000     0.0234101  
C76      C      0.255850000000     0.397250000000     0.883970000000    -0.106163   
C77      C      0.249860000000     0.429570000000     0.915660000000     0.015944   
C78      C      0.482100000000     0.437090000000     0.581240000000     0.0157083  
C79      C      0.451350000000     0.443940000000     0.616130000000    -0.109114   
C80      C      0.453530000000     0.407040000000     0.643780000000     0.0159924  
C81      C      0.543950000000     0.972180000000     0.438890000000     0.41023    
C82      C      0.175620000000     0.632500000000     0.450750000000     0.413307   
C83      C      0.548840000000     0.643580000000     0.461000000000     0.411629   
C84      C      0.183270000000     0.956950000000     0.452650000000     0.41231    
C85      C      0.200960000000     0.986500000000     0.041770000000     0.409762   
C86      C      0.519990000000     0.606540000000     0.044830000000     0.414004   
C87      C      0.511080000000     0.987430000000     0.032880000000     0.408675   
C88      C      0.214140000000     0.600150000000     0.041840000000     0.411121   
C89      C      0.412680000000     0.885560000000     0.202590000000     0.41109    
C90      C      0.289180000000     0.724950000000     0.192920000000     0.408303   
C91      C      0.416460000000     0.708230000000     0.209790000000     0.417739   
C92      C      0.285870000000     0.897020000000     0.216190000000     0.413252   
C93      C      0.257430000000     0.860240000000     0.299150000000     0.410665   
C94      C      0.441360000000     0.743050000000     0.295880000000     0.41129    
C95      C      0.454160000000     0.854000000000     0.290990000000     0.413178   
C96      C      0.245780000000     0.737140000000     0.281360000000     0.415274   
C97      C      0.283160000000     0.654740000000     0.163370000000     0.0154531  
C98      C      0.288410000000     0.637980000000     0.122770000000    -0.108802   
C99      C      0.242360000000     0.634000000000     0.101020000000     0.0181092  
C100     C      0.212950000000     0.680490000000     0.321170000000     0.0183033  
C101     C      0.201280000000     0.691650000000     0.362140000000    -0.108436   
C102     C      0.206230000000     0.653790000000     0.388300000000     0.0169892  
C103     C      0.215370000000     0.947180000000     0.100690000000     0.017021   
C104     C      0.250800000000     0.949360000000     0.132800000000    -0.109041   
C105     C      0.232710000000     0.927960000000     0.168470000000     0.0175518  
C106     C      0.498920000000     0.650280000000     0.099660000000     0.0180812  
C107     C      0.460430000000     0.650160000000     0.129240000000    -0.110001   
C108     C      0.470830000000     0.680490000000     0.161440000000     0.0184158  
C109     C      0.487220000000     0.885480000000     0.349380000000     0.0195402  
C110     C      0.534320000000     0.885540000000     0.369760000000    -0.109405   
C111     C      0.532180000000     0.902020000000     0.410540000000     0.0164613  
C112     C      0.462700000000     0.704410000000     0.354040000000     0.0172289  
C113     C      0.503370000000     0.703640000000     0.381940000000    -0.109429   
C114     C      0.492990000000     0.675980000000     0.416160000000     0.0166137  
C115     C      0.230090000000     0.910420000000     0.348020000000     0.0234306  
C116     C      0.255850000000     0.897250000000     0.383970000000    -0.106178   
C117     C      0.249860000000     0.929560000000     0.415650000000     0.0160003  
C118     C      0.482100000000     0.937090000000     0.081240000000     0.0155524  
C119     C      0.451350000000     0.943940000000     0.116130000000    -0.109005   
C120     C      0.453530000000     0.907040000000     0.143780000000     0.0159066  
C121     C      0.543950000000     0.972180000000     0.938890000000     0.410219   
C122     C      0.175620000000     0.632500000000     0.950750000000     0.413315   
C123     C      0.548840000000     0.643580000000     0.961000000000     0.411712   
C124     C      0.183270000000     0.956950000000     0.952650000000     0.412242   
C125     C      0.200960000000     0.986500000000     0.541770000000     0.409777   
C126     C      0.519990000000     0.606540000000     0.544830000000     0.414087   
C127     C      0.511080000000     0.987430000000     0.532880000000     0.408685   
C128     C      0.214140000000     0.600150000000     0.541840000000     0.411135   
C129     C      0.412680000000     0.885560000000     0.702590000000     0.411089   
C130     C      0.289180000000     0.724950000000     0.692920000000     0.408169   
C131     C      0.416460000000     0.708230000000     0.709790000000     0.417737   
C132     C      0.285870000000     0.897020000000     0.716180000000     0.413347   
C133     C      0.257430000000     0.860240000000     0.799150000000     0.410665   
C134     C      0.441360000000     0.743050000000     0.795870000000     0.411398   
C135     C      0.454160000000     0.854000000000     0.790980000000     0.413284   
C136     C      0.245780000000     0.737140000000     0.781360000000     0.415401   
C137     C      0.283160000000     0.654740000000     0.663370000000     0.0154492  
C138     C      0.288410000000     0.637980000000     0.622770000000    -0.108806   
C139     C      0.242360000000     0.634000000000     0.601020000000     0.0181166  
C140     C      0.212950000000     0.680490000000     0.821170000000     0.0183106  
C141     C      0.201280000000     0.691650000000     0.862140000000    -0.108444   
C142     C      0.206230000000     0.653790000000     0.888300000000     0.0169946  
C143     C      0.215370000000     0.947180000000     0.600690000000     0.0170525  
C144     C      0.250800000000     0.949360000000     0.632790000000    -0.109049   
C145     C      0.232710000000     0.927960000000     0.668470000000     0.0175311  
C146     C      0.498920000000     0.650280000000     0.599660000000     0.0180879  
C147     C      0.460430000000     0.650160000000     0.629240000000    -0.110002   
C148     C      0.470830000000     0.680490000000     0.661440000000     0.0184145  
C149     C      0.487220000000     0.885480000000     0.849380000000     0.0194525  
C150     C      0.534320000000     0.885540000000     0.869770000000    -0.10935    
C151     C      0.532180000000     0.902020000000     0.910540000000     0.0164556  
C152     C      0.462700000000     0.704410000000     0.854040000000     0.0172549  
C153     C      0.503370000000     0.703640000000     0.881930000000    -0.109451   
C154     C      0.492990000000     0.675980000000     0.916160000000     0.0166357  
C155     C      0.230090000000     0.910420000000     0.848020000000     0.0234323  
C156     C      0.255850000000     0.897250000000     0.883970000000    -0.10618    
C157     C      0.249860000000     0.929560000000     0.915660000000     0.0160092  
C158     C      0.482100000000     0.937090000000     0.581240000000     0.0155573  
C159     C      0.451350000000     0.943940000000     0.616130000000    -0.109032   
C160     C      0.453530000000     0.907040000000     0.643780000000     0.0159146  
C161     C      0.043950000000     0.472180000000     0.438890000000     0.411935   
C162     C      0.675620000000     0.132500000000     0.450750000000     0.413324   
C163     C      0.048840000000     0.143580000000     0.461000000000     0.411633   
C164     C      0.683270000000     0.456950000000     0.452650000000     0.412312   
C165     C      0.700960000000     0.486500000000     0.041770000000     0.411375   
C166     C      0.019990000000     0.106540000000     0.044830000000     0.414005   
C167     C      0.011080000000     0.487430000000     0.032880000000     0.410275   
C168     C      0.714140000000     0.100150000000     0.041840000000     0.411262   
C169     C      0.912680000000     0.385570000000     0.202590000000     0.41102    
C170     C      0.789180000000     0.224950000000     0.192920000000     0.408257   
C171     C      0.916450000000     0.208230000000     0.209790000000     0.417822   
C172     C      0.785870000000     0.397020000000     0.216190000000     0.413254   
C173     C      0.757430000000     0.360240000000     0.299150000000     0.410658   
C174     C      0.941360000000     0.243050000000     0.295880000000     0.411306   
C175     C      0.954160000000     0.354000000000     0.290990000000     0.413191   
C176     C      0.745780000000     0.237140000000     0.281360000000     0.415286   
C177     C      0.783160000000     0.154750000000     0.163370000000     0.0155091  
C178     C      0.788410000000     0.137980000000     0.122770000000    -0.108839   
C179     C      0.742360000000     0.134000000000     0.101020000000     0.0181695  
C180     C      0.712950000000     0.180490000000     0.321170000000     0.0182777  
C181     C      0.701280000000     0.191650000000     0.362140000000    -0.108391   
C182     C      0.706230000000     0.153790000000     0.388300000000     0.0169475  
C183     C      0.715360000000     0.447180000000     0.100690000000     0.0170981  
C184     C      0.750800000000     0.449360000000     0.132800000000    -0.109073   
C185     C      0.732710000000     0.427960000000     0.168470000000     0.0175894  
C186     C      0.998920000000     0.150280000000     0.099660000000     0.0183579  
C187     C      0.960430000000     0.150160000000     0.129240000000    -0.110115   
C188     C      0.970830000000     0.180490000000     0.161440000000     0.0185583  
C189     C      0.987220000000     0.385480000000     0.349380000000     0.0196713  
C190     C      0.034320000000     0.385540000000     0.369760000000    -0.109542   
C191     C      0.032180000000     0.402020000000     0.410540000000     0.0166091  
C192     C      0.962690000000     0.204410000000     0.354040000000     0.0172698  
C193     C      0.003370000000     0.203640000000     0.381940000000    -0.109582   
C194     C      0.992990000000     0.175980000000     0.416160000000     0.016772   
C195     C      0.730090000000     0.410420000000     0.348020000000     0.0234082  
C196     C      0.755850000000     0.397250000000     0.383970000000    -0.10616    
C197     C      0.749860000000     0.429570000000     0.415650000000     0.0159346  
C198     C      0.982100000000     0.437090000000     0.081240000000     0.0158171  
C199     C      0.951350000000     0.443940000000     0.116130000000    -0.109124   
C200     C      0.953530000000     0.407040000000     0.143780000000     0.0160208  
C201     C      0.043950000000     0.472180000000     0.938890000000     0.411922   
C202     C      0.675620000000     0.132500000000     0.950750000000     0.413332   
C203     C      0.048840000000     0.143580000000     0.961000000000     0.411715   
C204     C      0.683270000000     0.456950000000     0.952650000000     0.412244   
C205     C      0.700960000000     0.486500000000     0.541770000000     0.411388   
C206     C      0.019990000000     0.106540000000     0.544830000000     0.414088   
C207     C      0.011080000000     0.487430000000     0.532880000000     0.410284   
C208     C      0.714140000000     0.100150000000     0.541840000000     0.411275   
C209     C      0.912680000000     0.385570000000     0.702590000000     0.411019   
C210     C      0.789180000000     0.224950000000     0.692920000000     0.408123   
C211     C      0.916450000000     0.208230000000     0.709790000000     0.41782    
C212     C      0.785870000000     0.397020000000     0.716180000000     0.41335    
C213     C      0.757430000000     0.360240000000     0.799150000000     0.410658   
C214     C      0.941360000000     0.243050000000     0.795870000000     0.411415   
C215     C      0.954160000000     0.354000000000     0.790980000000     0.413297   
C216     C      0.745780000000     0.237140000000     0.781360000000     0.415413   
C217     C      0.783160000000     0.154750000000     0.663370000000     0.0155052  
C218     C      0.788410000000     0.137980000000     0.622770000000    -0.108842   
C219     C      0.742360000000     0.134000000000     0.601020000000     0.0181768  
C220     C      0.712950000000     0.180490000000     0.821170000000     0.018285   
C221     C      0.701280000000     0.191650000000     0.862140000000    -0.108399   
C222     C      0.706230000000     0.153790000000     0.888300000000     0.0169529  
C223     C      0.715360000000     0.447180000000     0.600690000000     0.0171294  
C224     C      0.750800000000     0.449360000000     0.632790000000    -0.109081   
C225     C      0.732710000000     0.427960000000     0.668470000000     0.0175687  
C226     C      0.998920000000     0.150280000000     0.599660000000     0.0183645  
C227     C      0.960430000000     0.150160000000     0.629240000000    -0.110116   
C228     C      0.970830000000     0.180490000000     0.661440000000     0.0185569  
C229     C      0.987220000000     0.385480000000     0.849380000000     0.0195836  
C230     C      0.034320000000     0.385540000000     0.869770000000    -0.109487   
C231     C      0.032180000000     0.402020000000     0.910540000000     0.0166034  
C232     C      0.962690000000     0.204410000000     0.854040000000     0.0172958  
C233     C      0.003370000000     0.203640000000     0.881930000000    -0.109603   
C234     C      0.992990000000     0.175980000000     0.916160000000     0.0167938  
C235     C      0.730090000000     0.410420000000     0.848020000000     0.0234099  
C236     C      0.755850000000     0.397250000000     0.883970000000    -0.106163   
C237     C      0.749860000000     0.429570000000     0.915660000000     0.0159435  
C238     C      0.982100000000     0.437090000000     0.581240000000     0.015822   
C239     C      0.951350000000     0.443940000000     0.616130000000    -0.109151   
C240     C      0.953530000000     0.407040000000     0.643780000000     0.0160288  
C241     C      0.043950000000     0.972180000000     0.438890000000     0.410252   
C242     C      0.675620000000     0.632500000000     0.450750000000     0.413312   
C243     C      0.048840000000     0.643580000000     0.461000000000     0.411621   
C244     C      0.683270000000     0.956950000000     0.452650000000     0.41231    
C245     C      0.700960000000     0.986500000000     0.041770000000     0.40976    
C246     C      0.019990000000     0.606540000000     0.044830000000     0.413879   
C247     C      0.011080000000     0.987430000000     0.032880000000     0.408596   
C248     C      0.714140000000     0.600150000000     0.041840000000     0.411122   
C249     C      0.912680000000     0.885560000000     0.202590000000     0.411061   
C250     C      0.789180000000     0.724950000000     0.192920000000     0.408246   
C251     C      0.916450000000     0.708230000000     0.209790000000     0.417808   
C252     C      0.785870000000     0.897020000000     0.216190000000     0.41325    
C253     C      0.757430000000     0.860240000000     0.299150000000     0.410665   
C254     C      0.941360000000     0.743050000000     0.295880000000     0.411301   
C255     C      0.954160000000     0.854000000000     0.290990000000     0.413181   
C256     C      0.745780000000     0.737140000000     0.281360000000     0.415283   
C257     C      0.783160000000     0.654740000000     0.163370000000     0.0154512  
C258     C      0.788410000000     0.637980000000     0.122770000000    -0.108805   
C259     C      0.742360000000     0.634000000000     0.101020000000     0.0181214  
C260     C      0.712950000000     0.680490000000     0.321170000000     0.0183163  
C261     C      0.701280000000     0.691650000000     0.362140000000    -0.108442   
C262     C      0.706230000000     0.653790000000     0.388300000000     0.0169917  
C263     C      0.715360000000     0.947180000000     0.100690000000     0.0169649  
C264     C      0.750800000000     0.949360000000     0.132800000000    -0.109011   
C265     C      0.732710000000     0.927960000000     0.168470000000     0.0175404  
C266     C      0.998920000000     0.650280000000     0.099660000000     0.0183067  
C267     C      0.960430000000     0.650160000000     0.129240000000    -0.11008    
C268     C      0.970830000000     0.680490000000     0.161440000000     0.0185249  
C269     C      0.987220000000     0.885480000000     0.349380000000     0.0196452  
C270     C      0.034320000000     0.885540000000     0.369760000000    -0.109507   
C271     C      0.032180000000     0.902020000000     0.410540000000     0.0165039  
C272     C      0.962690000000     0.704410000000     0.354040000000     0.0173113  
C273     C      0.003370000000     0.703640000000     0.381940000000    -0.109616   
C274     C      0.992990000000     0.675980000000     0.416160000000     0.0167947  
C275     C      0.730090000000     0.910420000000     0.348020000000     0.0234305  
C276     C      0.755850000000     0.897250000000     0.383970000000    -0.106178   
C277     C      0.749860000000     0.929560000000     0.415650000000     0.0159998  
C278     C      0.982100000000     0.937090000000     0.081240000000     0.0156662  
C279     C      0.951350000000     0.943940000000     0.116130000000    -0.109042   
C280     C      0.953530000000     0.907040000000     0.143780000000     0.015943   
C281     C      0.043950000000     0.972180000000     0.938890000000     0.410242   
C282     C      0.675620000000     0.632500000000     0.950750000000     0.41332    
C283     C      0.048840000000     0.643580000000     0.961000000000     0.411703   
C284     C      0.683270000000     0.956950000000     0.952650000000     0.412242   
C285     C      0.700960000000     0.986500000000     0.541770000000     0.409774   
C286     C      0.019990000000     0.606540000000     0.544830000000     0.413963   
C287     C      0.011080000000     0.987430000000     0.532880000000     0.408606   
C288     C      0.714140000000     0.600150000000     0.541840000000     0.411135   
C289     C      0.912680000000     0.885560000000     0.702590000000     0.41106    
C290     C      0.789180000000     0.724950000000     0.692920000000     0.408112   
C291     C      0.916450000000     0.708230000000     0.709790000000     0.417806   
C292     C      0.785870000000     0.897020000000     0.716180000000     0.413345   
C293     C      0.757430000000     0.860240000000     0.799150000000     0.410665   
C294     C      0.941360000000     0.743050000000     0.795870000000     0.41141    
C295     C      0.954160000000     0.854000000000     0.790980000000     0.413286   
C296     C      0.745780000000     0.737140000000     0.781360000000     0.41541    
C297     C      0.783160000000     0.654740000000     0.663370000000     0.0154473  
C298     C      0.788410000000     0.637980000000     0.622770000000    -0.108808   
C299     C      0.742360000000     0.634000000000     0.601020000000     0.0181288  
C300     C      0.712950000000     0.680490000000     0.821170000000     0.0183237  
C301     C      0.701280000000     0.691650000000     0.862140000000    -0.10845    
C302     C      0.706230000000     0.653790000000     0.888300000000     0.0169971  
C303     C      0.715360000000     0.947180000000     0.600690000000     0.0169963  
C304     C      0.750800000000     0.949360000000     0.632790000000    -0.109019   
C305     C      0.732710000000     0.927960000000     0.668470000000     0.0175198  
C306     C      0.998920000000     0.650280000000     0.599660000000     0.0183134  
C307     C      0.960430000000     0.650160000000     0.629240000000    -0.110081   
C308     C      0.970830000000     0.680490000000     0.661440000000     0.0185236  
C309     C      0.987220000000     0.885480000000     0.849380000000     0.0195575  
C310     C      0.034320000000     0.885540000000     0.869770000000    -0.109452   
C311     C      0.032180000000     0.902020000000     0.910540000000     0.0164982  
C312     C      0.962690000000     0.704410000000     0.854040000000     0.0173373  
C313     C      0.003370000000     0.703640000000     0.881930000000    -0.109637   
C314     C      0.992990000000     0.675980000000     0.916160000000     0.0168165  
C315     C      0.730090000000     0.910420000000     0.848020000000     0.0234321  
C316     C      0.755850000000     0.897250000000     0.883970000000    -0.10618    
C317     C      0.749860000000     0.929560000000     0.915660000000     0.0160086  
C318     C      0.982100000000     0.937090000000     0.581240000000     0.0156711  
C319     C      0.951350000000     0.943940000000     0.616130000000    -0.109069   
C320     C      0.953530000000     0.907040000000     0.643780000000     0.0159511  
Co1      Co     0.108200000000     0.487500000000     0.504400000000     0.90028    
Co2      Co     0.616630000000     0.104620000000     0.014770000000     0.897397   
Co3      Co     0.546390000000     0.552930000000     0.479450000000     0.908894   
Co4      Co     0.179280000000     0.545540000000     0.979360000000     0.904897   
Co5      Co     0.354550000000     0.359680000000     0.269040000000     0.902673   
Co6      Co     0.346270000000     0.241080000000     0.262740000000     0.906735   
Co7      Co     0.414210000000     0.298630000000     0.231930000000     0.905423   
Co8      Co     0.285590000000     0.305720000000     0.234010000000     0.908091   
Co9      Co     0.108200000000     0.487500000000     0.004400000000     0.899586   
Co10     Co     0.616630000000     0.104620000000     0.514770000000     0.89818    
Co11     Co     0.546390000000     0.552930000000     0.979450000000     0.909421   
Co12     Co     0.179280000000     0.545540000000     0.479360000000     0.90433    
Co13     Co     0.354550000000     0.359680000000     0.769040000000     0.902647   
Co14     Co     0.346270000000     0.241080000000     0.762740000000     0.906836   
Co15     Co     0.414210000000     0.298630000000     0.731930000000     0.905456   
Co16     Co     0.285590000000     0.305720000000     0.734010000000     0.908082   
Co17     Co     0.108200000000     0.987510000000     0.504400000000     0.898538   
Co18     Co     0.616630000000     0.604620000000     0.014770000000     0.897343   
Co19     Co     0.546390000000     0.052930000000     0.479450000000     0.909208   
Co20     Co     0.179280000000     0.045540000000     0.979360000000     0.906034   
Co21     Co     0.354550000000     0.859690000000     0.269040000000     0.902693   
Co22     Co     0.346270000000     0.741080000000     0.262740000000     0.906708   
Co23     Co     0.414210000000     0.798630000000     0.231930000000     0.90546    
Co24     Co     0.285590000000     0.805720000000     0.234010000000     0.908112   
Co25     Co     0.108200000000     0.987510000000     0.004400000000     0.897845   
Co26     Co     0.616630000000     0.604620000000     0.514770000000     0.898129   
Co27     Co     0.546390000000     0.052930000000     0.979450000000     0.909733   
Co28     Co     0.179280000000     0.045540000000     0.479360000000     0.90547    
Co29     Co     0.354550000000     0.859690000000     0.769040000000     0.902666   
Co30     Co     0.346270000000     0.741080000000     0.762740000000     0.906809   
Co31     Co     0.414210000000     0.798630000000     0.731930000000     0.905493   
Co32     Co     0.285590000000     0.805720000000     0.734010000000     0.908104   
Co33     Co     0.608200000000     0.487500000000     0.504400000000     0.900284   
Co34     Co     0.116630000000     0.104620000000     0.014770000000     0.89739    
Co35     Co     0.046390000000     0.552930000000     0.479450000000     0.90888    
Co36     Co     0.679280000000     0.545540000000     0.979360000000     0.904897   
Co37     Co     0.854550000000     0.359680000000     0.269040000000     0.902674   
Co38     Co     0.846270000000     0.241080000000     0.262740000000     0.906737   
Co39     Co     0.914210000000     0.298630000000     0.231930000000     0.90542    
Co40     Co     0.785590000000     0.305720000000     0.234010000000     0.908071   
Co41     Co     0.608200000000     0.487500000000     0.004400000000     0.89959    
Co42     Co     0.116630000000     0.104620000000     0.514770000000     0.898173   
Co43     Co     0.046390000000     0.552930000000     0.979450000000     0.909407   
Co44     Co     0.679280000000     0.545540000000     0.479360000000     0.90433    
Co45     Co     0.854550000000     0.359680000000     0.769040000000     0.902648   
Co46     Co     0.846270000000     0.241080000000     0.762740000000     0.906838   
Co47     Co     0.914210000000     0.298630000000     0.731930000000     0.905452   
Co48     Co     0.785590000000     0.305720000000     0.734010000000     0.908063   
Co49     Co     0.608200000000     0.987510000000     0.504400000000     0.898542   
Co50     Co     0.116630000000     0.604620000000     0.014770000000     0.897337   
Co51     Co     0.046390000000     0.052930000000     0.479450000000     0.909194   
Co52     Co     0.679280000000     0.045540000000     0.979360000000     0.906034   
Co53     Co     0.854550000000     0.859690000000     0.269040000000     0.902694   
Co54     Co     0.846270000000     0.741080000000     0.262740000000     0.90671    
Co55     Co     0.914210000000     0.798630000000     0.231930000000     0.905457   
Co56     Co     0.785590000000     0.805720000000     0.234010000000     0.908092   
Co57     Co     0.608200000000     0.987510000000     0.004400000000     0.897849   
Co58     Co     0.116630000000     0.604620000000     0.514770000000     0.898123   
Co59     Co     0.046390000000     0.052930000000     0.979450000000     0.909719   
Co60     Co     0.679280000000     0.045540000000     0.479360000000     0.90547    
Co61     Co     0.854550000000     0.859690000000     0.769040000000     0.902668   
Co62     Co     0.846270000000     0.741080000000     0.762740000000     0.906811   
Co63     Co     0.914210000000     0.798630000000     0.731930000000     0.905489   
Co64     Co     0.785590000000     0.805720000000     0.734010000000     0.908084   
H1       H      0.315030000000     0.146850000000     0.179450000000     0.0419028  
H2       H      0.253940000000     0.138850000000     0.177790000000     0.0328957  
H3       H      0.282960000000     0.104020000000     0.056920000000     0.103546   
H4       H      0.312660000000     0.158160000000     0.106670000000     0.0557582  
H5       H      0.304320000000     0.106540000000     0.124680000000     0.0500834  
H6       H      0.227630000000     0.165300000000     0.095290000000     0.037463   
H7       H      0.216660000000     0.116690000000     0.118330000000     0.0357058  
H8       H      0.256430000000     0.213300000000     0.141930000000     0.104002   
H9       H      0.187540000000     0.156960000000     0.311190000000     0.0276079  
H10      H      0.248100000000     0.166540000000     0.319740000000     0.0426336  
H11      H      0.181270000000     0.193810000000     0.433570000000     0.10359    
H12      H      0.224730000000     0.216810000000     0.372060000000     0.0589757  
H13      H      0.165080000000     0.203310000000     0.363340000000     0.0545696  
H14      H      0.243310000000     0.145160000000     0.390940000000     0.036904   
H15      H      0.187780000000     0.126590000000     0.375960000000     0.0363513  
H16      H      0.175690000000     0.228070000000     0.290690000000     0.103826   
H17      H      0.181220000000     0.458590000000     0.110870000000     0.0380451  
H18      H      0.210860000000     0.414320000000     0.091580000000     0.0360388  
H19      H      0.278050000000     0.460280000000     0.207020000000     0.103217   
H20      H      0.283420000000     0.434080000000     0.123610000000     0.0572719  
H21      H      0.258340000000     0.482550000000     0.139310000000     0.0545003  
H22      H      0.223140000000     0.395240000000     0.161900000000     0.0433984  
H23      H      0.201170000000     0.444630000000     0.178140000000     0.0295238  
H24      H      0.265830000000     0.479250000000     0.065550000000     0.102682   
H25      H      0.532240000000     0.141210000000     0.113070000000     0.0393399  
H26      H      0.503130000000     0.182150000000     0.087920000000     0.0350301  
H27      H      0.426480000000     0.145750000000     0.199080000000     0.103061   
H28      H      0.427130000000     0.159140000000     0.115780000000     0.0552364  
H29      H      0.456900000000     0.118080000000     0.140710000000     0.0547951  
H30      H      0.472140000000     0.212830000000     0.150280000000     0.0411604  
H31      H      0.505130000000     0.172860000000     0.173820000000     0.03203    
H32      H      0.452850000000     0.114790000000     0.063340000000     0.10318    
H33      H      0.474650000000     0.417780000000     0.345080000000     0.0357135  
H34      H      0.461000000000     0.368960000000     0.366830000000     0.0346846  
H35      H      0.504950000000     0.461180000000     0.391030000000     0.104244   
H36      H      0.547360000000     0.353000000000     0.370840000000     0.0506624  
H37      H      0.559640000000     0.404230000000     0.353270000000     0.0568304  
H38      H      0.564580000000     0.392950000000     0.425330000000     0.0424751  
H39      H      0.503090000000     0.387010000000     0.425880000000     0.0317116  
H40      H      0.524020000000     0.356930000000     0.302460000000     0.104309   
H41      H      0.431230000000     0.216710000000     0.368300000000     0.0363356  
H42      H      0.454760000000     0.172270000000     0.344380000000     0.03678    
H43      H      0.543870000000     0.206920000000     0.451110000000     0.102747   
H44      H      0.534720000000     0.191580000000     0.367390000000     0.0565503  
H45      H      0.510470000000     0.235940000000     0.391630000000     0.0536384  
H46      H      0.486000000000     0.143680000000     0.406460000000     0.0438264  
H47      H      0.461400000000     0.187870000000     0.430450000000     0.0313355  
H48      H      0.508200000000     0.238420000000     0.316070000000     0.102646   
H49      H      0.249990000000     0.435530000000     0.333720000000     0.0385     
H50      H      0.195400000000     0.422820000000     0.355650000000     0.0294942  
H51      H      0.190640000000     0.395450000000     0.436910000000     0.102372   
H52      H      0.243470000000     0.366300000000     0.393750000000     0.0567407  
H53      H      0.293270000000     0.394170000000     0.377380000000     0.0623686  
H54      H      0.255220000000     0.461590000000     0.404530000000     0.0423736  
H55      H      0.277070000000     0.424020000000     0.437270000000     0.0334831  
H56      H      0.190290000000     0.363580000000     0.319190000000     0.102287   
H57      H      0.471740000000     0.407590000000     0.067180000000     0.032217   
H58      H      0.518780000000     0.434040000000     0.090240000000     0.0418745  
H59      H      0.418580000000     0.446580000000     0.184710000000     0.102584   
H60      H      0.462910000000     0.472750000000     0.130780000000     0.0559102  
H61      H      0.414850000000     0.448300000000     0.107040000000     0.0537155  
H62      H      0.490030000000     0.401170000000     0.152070000000     0.0360056  
H63      H      0.440440000000     0.378410000000     0.129700000000     0.0377522  
H64      H      0.442800000000     0.482930000000     0.049830000000     0.1033     
H65      H      0.315030000000     0.146850000000     0.679450000000     0.0418992  
H66      H      0.253940000000     0.138850000000     0.677790000000     0.032894   
H67      H      0.282960000000     0.104020000000     0.556920000000     0.103583   
H68      H      0.312660000000     0.158160000000     0.606670000000     0.0557819  
H69      H      0.304320000000     0.106540000000     0.624680000000     0.0500889  
H70      H      0.227630000000     0.165300000000     0.595290000000     0.0374891  
H71      H      0.216660000000     0.116690000000     0.618330000000     0.0357029  
H72      H      0.256430000000     0.213300000000     0.641930000000     0.104016   
H73      H      0.187540000000     0.156960000000     0.811190000000     0.0276026  
H74      H      0.248100000000     0.166540000000     0.819740000000     0.0426337  
H75      H      0.181270000000     0.193810000000     0.933560000000     0.103641   
H76      H      0.224730000000     0.216810000000     0.872060000000     0.0589923  
H77      H      0.165080000000     0.203310000000     0.863340000000     0.054573   
H78      H      0.243310000000     0.145160000000     0.890940000000     0.0369265  
H79      H      0.187780000000     0.126590000000     0.875960000000     0.0363478  
H80      H      0.175690000000     0.228070000000     0.790690000000     0.103832   
H81      H      0.181220000000     0.458590000000     0.610870000000     0.0380394  
H82      H      0.210860000000     0.414320000000     0.591580000000     0.036065   
H83      H      0.278050000000     0.460280000000     0.707030000000     0.10321    
H84      H      0.283420000000     0.434080000000     0.623610000000     0.0572942  
H85      H      0.258340000000     0.482550000000     0.639310000000     0.0544999  
H86      H      0.223140000000     0.395240000000     0.661900000000     0.0434069  
H87      H      0.201170000000     0.444630000000     0.678140000000     0.0295275  
H88      H      0.265830000000     0.479250000000     0.565550000000     0.102713   
H89      H      0.532240000000     0.141210000000     0.613070000000     0.0393353  
H90      H      0.503130000000     0.182150000000     0.587920000000     0.0350701  
H91      H      0.426480000000     0.145750000000     0.699080000000     0.103059   
H92      H      0.427130000000     0.159140000000     0.615780000000     0.0552536  
H93      H      0.456900000000     0.118080000000     0.640710000000     0.0547937  
H94      H      0.472140000000     0.212830000000     0.650280000000     0.0411732  
H95      H      0.505130000000     0.172860000000     0.673820000000     0.0320303  
H96      H      0.452850000000     0.114790000000     0.563340000000     0.103215   
H97      H      0.474650000000     0.417780000000     0.845080000000     0.035741   
H98      H      0.461000000000     0.368960000000     0.866830000000     0.0347255  
H99      H      0.504950000000     0.461180000000     0.891020000000     0.104209   
H100     H      0.547360000000     0.353000000000     0.870840000000     0.0506586  
H101     H      0.559640000000     0.404230000000     0.853270000000     0.0568004  
H102     H      0.564580000000     0.392950000000     0.925330000000     0.0425028  
H103     H      0.503090000000     0.387010000000     0.925880000000     0.0317643  
H104     H      0.524020000000     0.356930000000     0.802460000000     0.104334   
H105     H      0.431230000000     0.216710000000     0.868300000000     0.0363436  
H106     H      0.454760000000     0.172270000000     0.844380000000     0.0367766  
H107     H      0.543870000000     0.206920000000     0.951100000000     0.102784   
H108     H      0.534720000000     0.191580000000     0.867390000000     0.0565671  
H109     H      0.510470000000     0.235940000000     0.891630000000     0.0536527  
H110     H      0.486000000000     0.143680000000     0.906460000000     0.0438384  
H111     H      0.461400000000     0.187870000000     0.930450000000     0.031376   
H112     H      0.508200000000     0.238420000000     0.816070000000     0.102642   
H113     H      0.249990000000     0.435530000000     0.833720000000     0.0384975  
H114     H      0.195400000000     0.422820000000     0.855650000000     0.0294891  
H115     H      0.190640000000     0.395450000000     0.936910000000     0.102402   
H116     H      0.243470000000     0.366300000000     0.893750000000     0.056763   
H117     H      0.293270000000     0.394170000000     0.877380000000     0.0623861  
H118     H      0.255220000000     0.461590000000     0.904530000000     0.0423854  
H119     H      0.277070000000     0.424020000000     0.937270000000     0.0335441  
H120     H      0.190290000000     0.363580000000     0.819190000000     0.102289   
H121     H      0.471740000000     0.407590000000     0.567190000000     0.0322631  
H122     H      0.518780000000     0.434040000000     0.590240000000     0.0418861  
H123     H      0.418580000000     0.446580000000     0.684710000000     0.102584   
H124     H      0.462910000000     0.472750000000     0.630770000000     0.0559273  
H125     H      0.414850000000     0.448300000000     0.607040000000     0.0537386  
H126     H      0.490030000000     0.401170000000     0.652070000000     0.0360087  
H127     H      0.440440000000     0.378410000000     0.629700000000     0.0377683  
H128     H      0.442800000000     0.482930000000     0.549820000000     0.103329   
H129     H      0.315030000000     0.646840000000     0.179450000000     0.0418131  
H130     H      0.253940000000     0.638850000000     0.177790000000     0.0327771  
H131     H      0.282960000000     0.604020000000     0.056920000000     0.103392   
H132     H      0.312660000000     0.658160000000     0.106670000000     0.0557241  
H133     H      0.304320000000     0.606540000000     0.124680000000     0.0498646  
H134     H      0.227630000000     0.665300000000     0.095290000000     0.0374692  
H135     H      0.216660000000     0.616690000000     0.118330000000     0.0355503  
H136     H      0.256430000000     0.713310000000     0.141930000000     0.103972   
H137     H      0.187540000000     0.656960000000     0.311190000000     0.0274827  
H138     H      0.248100000000     0.666540000000     0.319740000000     0.0425346  
H139     H      0.181270000000     0.693810000000     0.433570000000     0.103592   
H140     H      0.224730000000     0.716810000000     0.372060000000     0.0589838  
H141     H      0.165080000000     0.703310000000     0.363340000000     0.054567   
H142     H      0.243310000000     0.645160000000     0.390940000000     0.0367941  
H143     H      0.187780000000     0.626590000000     0.375960000000     0.0362005  
H144     H      0.175690000000     0.728070000000     0.290690000000     0.103804   
H145     H      0.181220000000     0.958590000000     0.110870000000     0.037948   
H146     H      0.210860000000     0.914320000000     0.091580000000     0.0360699  
H147     H      0.278050000000     0.960280000000     0.207020000000     0.103019   
H148     H      0.283420000000     0.934080000000     0.123610000000     0.0571972  
H149     H      0.258340000000     0.982550000000     0.139310000000     0.0542298  
H150     H      0.223140000000     0.895240000000     0.161900000000     0.0433961  
H151     H      0.201170000000     0.944630000000     0.178140000000     0.0293963  
H152     H      0.265830000000     0.979250000000     0.065550000000     0.10234    
H153     H      0.532240000000     0.641210000000     0.113070000000     0.0392532  
H154     H      0.503130000000     0.682150000000     0.087920000000     0.0350437  
H155     H      0.426480000000     0.645750000000     0.199080000000     0.102926   
H156     H      0.427130000000     0.659140000000     0.115780000000     0.055187   
H157     H      0.456900000000     0.618080000000     0.140710000000     0.0545984  
H158     H      0.472140000000     0.712830000000     0.150280000000     0.0411667  
H159     H      0.505130000000     0.672860000000     0.173820000000     0.0319655  
H160     H      0.452850000000     0.614790000000     0.063340000000     0.103046   
H161     H      0.474650000000     0.917770000000     0.345080000000     0.0355991  
H162     H      0.461000000000     0.868960000000     0.366830000000     0.0346653  
H163     H      0.504950000000     0.961180000000     0.391030000000     0.103911   
H164     H      0.547360000000     0.853000000000     0.370840000000     0.0506543  
H165     H      0.559640000000     0.904230000000     0.353270000000     0.0567407  
H166     H      0.564580000000     0.892950000000     0.425330000000     0.0425033  
H167     H      0.503090000000     0.887010000000     0.425880000000     0.0317129  
H168     H      0.524020000000     0.856930000000     0.302460000000     0.104278   
H169     H      0.431230000000     0.716710000000     0.368300000000     0.0363058  
H170     H      0.454760000000     0.672260000000     0.344380000000     0.0366721  
H171     H      0.543870000000     0.706920000000     0.451110000000     0.102751   
H172     H      0.534720000000     0.691580000000     0.367390000000     0.0565152  
H173     H      0.510470000000     0.735940000000     0.391630000000     0.0536485  
H174     H      0.486000000000     0.643680000000     0.406460000000     0.0437282  
H175     H      0.461400000000     0.687870000000     0.430450000000     0.0313023  
H176     H      0.508200000000     0.738420000000     0.316070000000     0.10263    
H177     H      0.249990000000     0.935530000000     0.333720000000     0.0383437  
H178     H      0.195400000000     0.922810000000     0.355650000000     0.0293899  
H179     H      0.190640000000     0.895450000000     0.436910000000     0.10237    
H180     H      0.243470000000     0.866290000000     0.393750000000     0.056724   
H181     H      0.293270000000     0.894170000000     0.377380000000     0.0623195  
H182     H      0.255220000000     0.961590000000     0.404530000000     0.0421469  
H183     H      0.277070000000     0.924020000000     0.437270000000     0.0333564  
H184     H      0.190290000000     0.863580000000     0.319190000000     0.102263   
H185     H      0.471740000000     0.907590000000     0.067180000000     0.0322423  
H186     H      0.518780000000     0.934040000000     0.090240000000     0.041858   
H187     H      0.418580000000     0.946580000000     0.184710000000     0.102418   
H188     H      0.462910000000     0.972750000000     0.130780000000     0.0556623  
H189     H      0.414850000000     0.948290000000     0.107040000000     0.0535817  
H190     H      0.490030000000     0.901170000000     0.152070000000     0.0359738  
H191     H      0.440440000000     0.878410000000     0.129700000000     0.0377649  
H192     H      0.442800000000     0.982930000000     0.049830000000     0.102928   
H193     H      0.315030000000     0.646840000000     0.679450000000     0.0418095  
H194     H      0.253940000000     0.638850000000     0.677790000000     0.0327756  
H195     H      0.282960000000     0.604020000000     0.556920000000     0.103429   
H196     H      0.312660000000     0.658160000000     0.606670000000     0.0557478  
H197     H      0.304320000000     0.606540000000     0.624680000000     0.0498702  
H198     H      0.227630000000     0.665300000000     0.595290000000     0.0374954  
H199     H      0.216660000000     0.616690000000     0.618330000000     0.0355475  
H200     H      0.256430000000     0.713310000000     0.641930000000     0.103985   
H201     H      0.187540000000     0.656960000000     0.811190000000     0.0274775  
H202     H      0.248100000000     0.666540000000     0.819740000000     0.0425348  
H203     H      0.181270000000     0.693810000000     0.933560000000     0.103643   
H204     H      0.224730000000     0.716810000000     0.872060000000     0.0590004  
H205     H      0.165080000000     0.703310000000     0.863340000000     0.0545704  
H206     H      0.243310000000     0.645160000000     0.890940000000     0.0368168  
H207     H      0.187780000000     0.626590000000     0.875960000000     0.0361972  
H208     H      0.175690000000     0.728070000000     0.790690000000     0.10381    
H209     H      0.181220000000     0.958590000000     0.610870000000     0.0379424  
H210     H      0.210860000000     0.914320000000     0.591580000000     0.0360961  
H211     H      0.278050000000     0.960280000000     0.707030000000     0.103013   
H212     H      0.283420000000     0.934080000000     0.623610000000     0.0572196  
H213     H      0.258340000000     0.982550000000     0.639310000000     0.0542295  
H214     H      0.223140000000     0.895240000000     0.661900000000     0.0434047  
H215     H      0.201170000000     0.944630000000     0.678140000000     0.0294001  
H216     H      0.265830000000     0.979250000000     0.565550000000     0.102371   
H217     H      0.532240000000     0.641210000000     0.613070000000     0.0392487  
H218     H      0.503130000000     0.682150000000     0.587920000000     0.0350839  
H219     H      0.426480000000     0.645750000000     0.699080000000     0.102924   
H220     H      0.427130000000     0.659140000000     0.615780000000     0.0552044  
H221     H      0.456900000000     0.618080000000     0.640710000000     0.0545972  
H222     H      0.472140000000     0.712830000000     0.650280000000     0.0411795  
H223     H      0.505130000000     0.672860000000     0.673820000000     0.0319659  
H224     H      0.452850000000     0.614790000000     0.563340000000     0.103081   
H225     H      0.474650000000     0.917770000000     0.845080000000     0.0356267  
H226     H      0.461000000000     0.868960000000     0.866830000000     0.0347063  
H227     H      0.504950000000     0.961180000000     0.891020000000     0.103877   
H228     H      0.547360000000     0.853000000000     0.870840000000     0.0506505  
H229     H      0.559640000000     0.904230000000     0.853270000000     0.0567108  
H230     H      0.564580000000     0.892950000000     0.925330000000     0.042531   
H231     H      0.503090000000     0.887010000000     0.925880000000     0.0317657  
H232     H      0.524020000000     0.856930000000     0.802460000000     0.104304   
H233     H      0.431230000000     0.716710000000     0.868300000000     0.0363139  
H234     H      0.454760000000     0.672260000000     0.844380000000     0.0366689  
H235     H      0.543870000000     0.706920000000     0.951100000000     0.102788   
H236     H      0.534720000000     0.691580000000     0.867390000000     0.056532   
H237     H      0.510470000000     0.735940000000     0.891630000000     0.0536629  
H238     H      0.486000000000     0.643680000000     0.906460000000     0.0437404  
H239     H      0.461400000000     0.687870000000     0.930450000000     0.0313431  
H240     H      0.508200000000     0.738420000000     0.816070000000     0.102626   
H241     H      0.249990000000     0.935530000000     0.833720000000     0.0383413  
H242     H      0.195400000000     0.922810000000     0.855650000000     0.0293849  
H243     H      0.190640000000     0.895450000000     0.936910000000     0.102401   
H244     H      0.243470000000     0.866290000000     0.893750000000     0.0567464  
H245     H      0.293270000000     0.894170000000     0.877380000000     0.0623371  
H246     H      0.255220000000     0.961590000000     0.904530000000     0.0421589  
H247     H      0.277070000000     0.924020000000     0.937270000000     0.0334177  
H248     H      0.190290000000     0.863580000000     0.819190000000     0.102265   
H249     H      0.471740000000     0.907590000000     0.567190000000     0.0322885  
H250     H      0.518780000000     0.934040000000     0.590240000000     0.0418697  
H251     H      0.418580000000     0.946580000000     0.684710000000     0.102418   
H252     H      0.462910000000     0.972750000000     0.630770000000     0.0556795  
H253     H      0.414850000000     0.948290000000     0.607040000000     0.0536048  
H254     H      0.490030000000     0.901170000000     0.652070000000     0.0359769  
H255     H      0.440440000000     0.878410000000     0.629700000000     0.037781   
H256     H      0.442800000000     0.982930000000     0.549820000000     0.102957   
H257     H      0.815030000000     0.146850000000     0.179450000000     0.0419046  
H258     H      0.753940000000     0.138850000000     0.177790000000     0.0329     
H259     H      0.782960000000     0.104020000000     0.056920000000     0.103549   
H260     H      0.812660000000     0.158160000000     0.106670000000     0.0557599  
H261     H      0.804320000000     0.106540000000     0.124680000000     0.0500859  
H262     H      0.727630000000     0.165300000000     0.095290000000     0.0374619  
H263     H      0.716650000000     0.116690000000     0.118330000000     0.0357058  
H264     H      0.756430000000     0.213300000000     0.141930000000     0.104005   
H265     H      0.687540000000     0.156960000000     0.311190000000     0.0276094  
H266     H      0.748100000000     0.166540000000     0.319740000000     0.0426335  
H267     H      0.681280000000     0.193810000000     0.433570000000     0.103602   
H268     H      0.724730000000     0.216810000000     0.372060000000     0.0589772  
H269     H      0.665080000000     0.203310000000     0.363340000000     0.054575   
H270     H      0.743310000000     0.145160000000     0.390940000000     0.0369051  
H271     H      0.687780000000     0.126590000000     0.375960000000     0.0363545  
H272     H      0.675700000000     0.228070000000     0.290690000000     0.103882   
H273     H      0.681220000000     0.458590000000     0.110870000000     0.0380641  
H274     H      0.710860000000     0.414320000000     0.091580000000     0.0360587  
H275     H      0.778050000000     0.460280000000     0.207020000000     0.103219   
H276     H      0.783420000000     0.434080000000     0.123610000000     0.0572663  
H277     H      0.758340000000     0.482550000000     0.139310000000     0.0544959  
H278     H      0.723140000000     0.395240000000     0.161900000000     0.0434051  
H279     H      0.701170000000     0.444630000000     0.178140000000     0.0295325  
H280     H      0.765830000000     0.479250000000     0.065550000000     0.102684   
H281     H      0.032240000000     0.141210000000     0.113070000000     0.0392366  
H282     H      0.003130000000     0.182150000000     0.087920000000     0.0349148  
H283     H      0.926480000000     0.145750000000     0.199080000000     0.103091   
H284     H      0.927130000000     0.159140000000     0.115780000000     0.0552585  
H285     H      0.956900000000     0.118080000000     0.140710000000     0.0548265  
H286     H      0.972140000000     0.212830000000     0.150280000000     0.0411622  
H287     H      0.005130000000     0.172860000000     0.173820000000     0.0319379  
H288     H      0.952850000000     0.114790000000     0.063340000000     0.103241   
H289     H      0.974650000000     0.417780000000     0.345080000000     0.0357193  
H290     H      0.960990000000     0.368960000000     0.366830000000     0.0346849  
H291     H      0.004950000000     0.461180000000     0.391030000000     0.104189   
H292     H      0.047360000000     0.353000000000     0.370840000000     0.0506677  
H293     H      0.059640000000     0.404230000000     0.353270000000     0.0568408  
H294     H      0.064580000000     0.392950000000     0.425330000000     0.0424641  
H295     H      0.003080000000     0.387010000000     0.425880000000     0.031668   
H296     H      0.024020000000     0.356930000000     0.302460000000     0.104241   
H297     H      0.931230000000     0.216710000000     0.368300000000     0.0363314  
H298     H      0.954760000000     0.172270000000     0.344380000000     0.0367841  
H299     H      0.043880000000     0.206920000000     0.451110000000     0.10272    
H300     H      0.034720000000     0.191580000000     0.367390000000     0.0565686  
H301     H      0.010470000000     0.235940000000     0.391630000000     0.0536509  
H302     H      0.986000000000     0.143680000000     0.406460000000     0.0438224  
H303     H      0.961400000000     0.187870000000     0.430450000000     0.0313246  
H304     H      0.008190000000     0.238420000000     0.316070000000     0.10263    
H305     H      0.749990000000     0.435530000000     0.333720000000     0.0385027  
H306     H      0.695400000000     0.422820000000     0.355650000000     0.0294965  
H307     H      0.690640000000     0.395450000000     0.436910000000     0.102374   
H308     H      0.743470000000     0.366300000000     0.393750000000     0.0567423  
H309     H      0.793270000000     0.394170000000     0.377380000000     0.0623722  
H310     H      0.755220000000     0.461590000000     0.404530000000     0.0423767  
H311     H      0.777070000000     0.424020000000     0.437270000000     0.0334878  
H312     H      0.690290000000     0.363580000000     0.319190000000     0.102291   
H313     H      0.971750000000     0.407590000000     0.067180000000     0.0322156  
H314     H      0.018780000000     0.434040000000     0.090240000000     0.0417858  
H315     H      0.918580000000     0.446580000000     0.184710000000     0.102572   
H316     H      0.962910000000     0.472750000000     0.130780000000     0.0559371  
H317     H      0.914850000000     0.448300000000     0.107040000000     0.053724   
H318     H      0.990030000000     0.401170000000     0.152070000000     0.0360265  
H319     H      0.940440000000     0.378410000000     0.129700000000     0.03775    
H320     H      0.942800000000     0.482930000000     0.049830000000     0.103313   
H321     H      0.815030000000     0.146850000000     0.679450000000     0.041901   
H322     H      0.753940000000     0.138850000000     0.677790000000     0.0328984  
H323     H      0.782960000000     0.104020000000     0.556920000000     0.103585   
H324     H      0.812660000000     0.158160000000     0.606670000000     0.0557836  
H325     H      0.804320000000     0.106540000000     0.624680000000     0.0500914  
H326     H      0.727630000000     0.165300000000     0.595290000000     0.037488   
H327     H      0.716650000000     0.116690000000     0.618330000000     0.0357028  
H328     H      0.756430000000     0.213300000000     0.641930000000     0.104018   
H329     H      0.687540000000     0.156960000000     0.811190000000     0.0276041  
H330     H      0.748100000000     0.166540000000     0.819740000000     0.0426336  
H331     H      0.681280000000     0.193810000000     0.933560000000     0.103653   
H332     H      0.724730000000     0.216810000000     0.872060000000     0.0589938  
H333     H      0.665080000000     0.203310000000     0.863340000000     0.0545784  
H334     H      0.743310000000     0.145160000000     0.890940000000     0.0369276  
H335     H      0.687780000000     0.126590000000     0.875960000000     0.0363511  
H336     H      0.675700000000     0.228070000000     0.790690000000     0.103888   
H337     H      0.681220000000     0.458590000000     0.610870000000     0.0380584  
H338     H      0.710860000000     0.414320000000     0.591580000000     0.0360848  
H339     H      0.778050000000     0.460280000000     0.707030000000     0.103212   
H340     H      0.783420000000     0.434080000000     0.623610000000     0.0572886  
H341     H      0.758340000000     0.482550000000     0.639310000000     0.0544954  
H342     H      0.723140000000     0.395240000000     0.661900000000     0.0434137  
H343     H      0.701170000000     0.444630000000     0.678140000000     0.0295362  
H344     H      0.765830000000     0.479250000000     0.565550000000     0.102714   
H345     H      0.032240000000     0.141210000000     0.613070000000     0.039232   
H346     H      0.003130000000     0.182150000000     0.587920000000     0.0349549  
H347     H      0.926480000000     0.145750000000     0.699080000000     0.103089   
H348     H      0.927130000000     0.159140000000     0.615780000000     0.0552758  
H349     H      0.956900000000     0.118080000000     0.640710000000     0.0548252  
H350     H      0.972140000000     0.212830000000     0.650280000000     0.041175   
H351     H      0.005130000000     0.172860000000     0.673820000000     0.0319382  
H352     H      0.952850000000     0.114790000000     0.563340000000     0.103276   
H353     H      0.974650000000     0.417780000000     0.845080000000     0.0357468  
H354     H      0.960990000000     0.368960000000     0.866830000000     0.0347258  
H355     H      0.004950000000     0.461180000000     0.891020000000     0.104154   
H356     H      0.047360000000     0.353000000000     0.870840000000     0.0506639  
H357     H      0.059640000000     0.404230000000     0.853270000000     0.0568108  
H358     H      0.064580000000     0.392950000000     0.925330000000     0.0424918  
H359     H      0.003080000000     0.387010000000     0.925880000000     0.0317207  
H360     H      0.024020000000     0.356930000000     0.802460000000     0.104267   
H361     H      0.931230000000     0.216710000000     0.868300000000     0.0363394  
H362     H      0.954760000000     0.172270000000     0.844380000000     0.0367806  
H363     H      0.043880000000     0.206920000000     0.951100000000     0.102757   
H364     H      0.034720000000     0.191580000000     0.867390000000     0.0565854  
H365     H      0.010470000000     0.235940000000     0.891630000000     0.0536652  
H366     H      0.986000000000     0.143680000000     0.906460000000     0.0438344  
H367     H      0.961400000000     0.187870000000     0.930450000000     0.0313651  
H368     H      0.008190000000     0.238420000000     0.816070000000     0.102626   
H369     H      0.749990000000     0.435530000000     0.833720000000     0.0385002  
H370     H      0.695400000000     0.422820000000     0.855650000000     0.0294914  
H371     H      0.690640000000     0.395450000000     0.936910000000     0.102404   
H372     H      0.743470000000     0.366300000000     0.893750000000     0.0567646  
H373     H      0.793270000000     0.394170000000     0.877380000000     0.0623897  
H374     H      0.755220000000     0.461590000000     0.904530000000     0.0423885  
H375     H      0.777070000000     0.424020000000     0.937270000000     0.0335488  
H376     H      0.690290000000     0.363580000000     0.819190000000     0.102293   
H377     H      0.971750000000     0.407590000000     0.567190000000     0.0322617  
H378     H      0.018780000000     0.434040000000     0.590240000000     0.0417974  
H379     H      0.918580000000     0.446580000000     0.684710000000     0.102572   
H380     H      0.962910000000     0.472750000000     0.630770000000     0.0559541  
H381     H      0.914850000000     0.448300000000     0.607040000000     0.053747   
H382     H      0.990030000000     0.401170000000     0.652070000000     0.0360296  
H383     H      0.940440000000     0.378410000000     0.629700000000     0.0377661  
H384     H      0.942800000000     0.482930000000     0.549820000000     0.103342   
H385     H      0.815030000000     0.646840000000     0.179450000000     0.0418148  
H386     H      0.753940000000     0.638850000000     0.177790000000     0.0327815  
H387     H      0.782960000000     0.604020000000     0.056920000000     0.103395   
H388     H      0.812660000000     0.658160000000     0.106670000000     0.0557258  
H389     H      0.804320000000     0.606540000000     0.124680000000     0.0498672  
H390     H      0.727630000000     0.665300000000     0.095290000000     0.0374681  
H391     H      0.716650000000     0.616690000000     0.118330000000     0.0355503  
H392     H      0.756430000000     0.713310000000     0.141930000000     0.103975   
H393     H      0.687540000000     0.656960000000     0.311190000000     0.0274842  
H394     H      0.748100000000     0.666540000000     0.319740000000     0.0425345  
H395     H      0.681280000000     0.693810000000     0.433570000000     0.103604   
H396     H      0.724730000000     0.716810000000     0.372060000000     0.0589853  
H397     H      0.665080000000     0.703310000000     0.363340000000     0.0545723  
H398     H      0.743310000000     0.645160000000     0.390940000000     0.0367953  
H399     H      0.687780000000     0.626590000000     0.375960000000     0.0362037  
H400     H      0.675700000000     0.728070000000     0.290690000000     0.10386    
H401     H      0.681220000000     0.958590000000     0.110870000000     0.037967   
H402     H      0.710860000000     0.914320000000     0.091580000000     0.0360898  
H403     H      0.778050000000     0.960280000000     0.207020000000     0.103021   
H404     H      0.783420000000     0.934080000000     0.123610000000     0.0571917  
H405     H      0.758340000000     0.982550000000     0.139310000000     0.0542254  
H406     H      0.723140000000     0.895240000000     0.161900000000     0.0434028  
H407     H      0.701170000000     0.944630000000     0.178140000000     0.029405   
H408     H      0.765830000000     0.979250000000     0.065550000000     0.102341   
H409     H      0.032240000000     0.641210000000     0.113070000000     0.0391497  
H410     H      0.003130000000     0.682150000000     0.087920000000     0.0349282  
H411     H      0.926480000000     0.645750000000     0.199080000000     0.102956   
H412     H      0.927130000000     0.659140000000     0.115780000000     0.0552092  
H413     H      0.956900000000     0.618080000000     0.140710000000     0.05463    
H414     H      0.972140000000     0.712830000000     0.150280000000     0.0411684  
H415     H      0.005130000000     0.672860000000     0.173820000000     0.0318732  
H416     H      0.952850000000     0.614790000000     0.063340000000     0.103107   
H417     H      0.974650000000     0.917770000000     0.345080000000     0.0356049  
H418     H      0.960990000000     0.868960000000     0.366830000000     0.0346656  
H419     H      0.004950000000     0.961180000000     0.391030000000     0.103856   
H420     H      0.047360000000     0.853000000000     0.370840000000     0.0506596  
H421     H      0.059640000000     0.904230000000     0.353270000000     0.0567512  
H422     H      0.064580000000     0.892950000000     0.425330000000     0.0424923  
H423     H      0.003080000000     0.887010000000     0.425880000000     0.0316692  
H424     H      0.024020000000     0.856930000000     0.302460000000     0.104211   
H425     H      0.931230000000     0.716710000000     0.368300000000     0.0363016  
H426     H      0.954760000000     0.672260000000     0.344380000000     0.0366762  
H427     H      0.043880000000     0.706920000000     0.451110000000     0.102725   
H428     H      0.034720000000     0.691580000000     0.367390000000     0.0565336  
H429     H      0.010470000000     0.735940000000     0.391630000000     0.0536611  
H430     H      0.986000000000     0.643680000000     0.406460000000     0.0437242  
H431     H      0.961400000000     0.687870000000     0.430450000000     0.0312914  
H432     H      0.008190000000     0.738420000000     0.316070000000     0.102613   
H433     H      0.749990000000     0.935530000000     0.333720000000     0.0383464  
H434     H      0.695400000000     0.922810000000     0.355650000000     0.0293922  
H435     H      0.690640000000     0.895450000000     0.436910000000     0.102372   
H436     H      0.743470000000     0.866290000000     0.393750000000     0.0567256  
H437     H      0.793270000000     0.894170000000     0.377380000000     0.0623231  
H438     H      0.755220000000     0.961590000000     0.404530000000     0.04215    
H439     H      0.777070000000     0.924020000000     0.437270000000     0.0333611  
H440     H      0.690290000000     0.863580000000     0.319190000000     0.102266   
H441     H      0.971750000000     0.907590000000     0.067180000000     0.0322409  
H442     H      0.018780000000     0.934040000000     0.090240000000     0.0417692  
H443     H      0.918580000000     0.946580000000     0.184710000000     0.102406   
H444     H      0.962910000000     0.972750000000     0.130780000000     0.0556893  
H445     H      0.914850000000     0.948290000000     0.107040000000     0.0535902  
H446     H      0.990030000000     0.901170000000     0.152070000000     0.0359947  
H447     H      0.940440000000     0.878410000000     0.129700000000     0.0377627  
H448     H      0.942800000000     0.982930000000     0.049830000000     0.102941   
H449     H      0.815030000000     0.646840000000     0.679450000000     0.0418113  
H450     H      0.753940000000     0.638850000000     0.677790000000     0.0327799  
H451     H      0.782960000000     0.604020000000     0.556920000000     0.103432   
H452     H      0.812660000000     0.658160000000     0.606670000000     0.0557495  
H453     H      0.804320000000     0.606540000000     0.624680000000     0.0498727  
H454     H      0.727630000000     0.665300000000     0.595290000000     0.0374943  
H455     H      0.716650000000     0.616690000000     0.618330000000     0.0355475  
H456     H      0.756430000000     0.713310000000     0.641930000000     0.103988   
H457     H      0.687540000000     0.656960000000     0.811190000000     0.0274791  
H458     H      0.748100000000     0.666540000000     0.819740000000     0.0425348  
H459     H      0.681280000000     0.693810000000     0.933560000000     0.103655   
H460     H      0.724730000000     0.716810000000     0.872060000000     0.059002   
H461     H      0.665080000000     0.703310000000     0.863340000000     0.0545757  
H462     H      0.743310000000     0.645160000000     0.890940000000     0.036818   
H463     H      0.687780000000     0.626590000000     0.875960000000     0.0362004  
H464     H      0.675700000000     0.728070000000     0.790690000000     0.103866   
H465     H      0.681220000000     0.958590000000     0.610870000000     0.0379614  
H466     H      0.710860000000     0.914320000000     0.591580000000     0.036116   
H467     H      0.778050000000     0.960280000000     0.707030000000     0.103014   
H468     H      0.783420000000     0.934080000000     0.623610000000     0.0572141  
H469     H      0.758340000000     0.982550000000     0.639310000000     0.0542251  
H470     H      0.723140000000     0.895240000000     0.661900000000     0.0434114  
H471     H      0.701170000000     0.944630000000     0.678140000000     0.0294088  
H472     H      0.765830000000     0.979250000000     0.565550000000     0.102372   
H473     H      0.032240000000     0.641210000000     0.613070000000     0.0391452  
H474     H      0.003130000000     0.682150000000     0.587920000000     0.0349684  
H475     H      0.926480000000     0.645750000000     0.699080000000     0.102954   
H476     H      0.927130000000     0.659140000000     0.615780000000     0.0552266  
H477     H      0.956900000000     0.618080000000     0.640710000000     0.0546288  
H478     H      0.972140000000     0.712830000000     0.650280000000     0.0411813  
H479     H      0.005130000000     0.672860000000     0.673820000000     0.0318736  
H480     H      0.952850000000     0.614790000000     0.563340000000     0.103141   
H481     H      0.974650000000     0.917770000000     0.845080000000     0.0356326  
H482     H      0.960990000000     0.868960000000     0.866830000000     0.0347066  
H483     H      0.004950000000     0.961180000000     0.891020000000     0.103822   
H484     H      0.047360000000     0.853000000000     0.870840000000     0.0506558  
H485     H      0.059640000000     0.904230000000     0.853270000000     0.0567212  
H486     H      0.064580000000     0.892950000000     0.925330000000     0.0425201  
H487     H      0.003080000000     0.887010000000     0.925880000000     0.0317221  
H488     H      0.024020000000     0.856930000000     0.802460000000     0.104236   
H489     H      0.931230000000     0.716710000000     0.868300000000     0.0363097  
H490     H      0.954760000000     0.672260000000     0.844380000000     0.0366729  
H491     H      0.043880000000     0.706920000000     0.951100000000     0.102761   
H492     H      0.034720000000     0.691580000000     0.867390000000     0.0565503  
H493     H      0.010470000000     0.735940000000     0.891630000000     0.0536754  
H494     H      0.986000000000     0.643680000000     0.906460000000     0.0437364  
H495     H      0.961400000000     0.687870000000     0.930450000000     0.0313321  
H496     H      0.008190000000     0.738420000000     0.816070000000     0.102609   
H497     H      0.749990000000     0.935530000000     0.833720000000     0.038344   
H498     H      0.695400000000     0.922810000000     0.855650000000     0.0293872  
H499     H      0.690640000000     0.895450000000     0.936910000000     0.102403   
H500     H      0.743470000000     0.866290000000     0.893750000000     0.0567479  
H501     H      0.793270000000     0.894170000000     0.877380000000     0.0623407  
H502     H      0.755220000000     0.961590000000     0.904530000000     0.042162   
H503     H      0.777070000000     0.924020000000     0.937270000000     0.0334223  
H504     H      0.690290000000     0.863580000000     0.819190000000     0.102268   
H505     H      0.971750000000     0.907590000000     0.567190000000     0.0322871  
H506     H      0.018780000000     0.934040000000     0.590240000000     0.0417809  
H507     H      0.918580000000     0.946580000000     0.684710000000     0.102406   
H508     H      0.962910000000     0.972750000000     0.630770000000     0.0557064  
H509     H      0.914850000000     0.948290000000     0.607040000000     0.0536133  
H510     H      0.990030000000     0.901170000000     0.652070000000     0.0359979  
H511     H      0.940440000000     0.878410000000     0.629700000000     0.0377788  
H512     H      0.942800000000     0.982930000000     0.549820000000     0.10297    
N1       N      0.249300000000     0.112070000000     0.064970000000    -0.216968   
N2       N      0.275230000000     0.199880000000     0.164050000000    -0.216313   
N3       N      0.187670000000     0.162850000000     0.425980000000    -0.218228   
N4       N      0.208970000000     0.217500000000     0.297150000000    -0.218233   
N5       N      0.267530000000     0.430600000000     0.198440000000    -0.217913   
N6       N      0.230730000000     0.471900000000     0.068230000000    -0.218405   
N7       N      0.435890000000     0.175920000000     0.191020000000    -0.218968   
N8       N      0.487580000000     0.121850000000     0.068690000000    -0.218776   
N9       N      0.526000000000     0.447320000000     0.411480000000    -0.21737    
N10      N      0.491140000000     0.365040000000     0.312420000000    -0.218038   
N11      N      0.531370000000     0.177610000000     0.443270000000    -0.217135   
N12      N      0.473750000000     0.230010000000     0.320980000000    -0.218027   
N13      N      0.204640000000     0.425310000000     0.434140000000    -0.217074   
N14      N      0.223880000000     0.375140000000     0.322340000000    -0.218958   
N15      N      0.426550000000     0.415660000000     0.178090000000    -0.217416   
N16      N      0.476170000000     0.471270000000     0.054060000000    -0.216747   
N17      N      0.249300000000     0.112070000000     0.564970000000    -0.216959   
N18      N      0.275230000000     0.199880000000     0.664050000000    -0.216291   
N19      N      0.187670000000     0.162850000000     0.925980000000    -0.218232   
N20      N      0.208970000000     0.217500000000     0.797150000000    -0.218257   
N21      N      0.267530000000     0.430600000000     0.698440000000    -0.217946   
N22      N      0.230730000000     0.471900000000     0.568230000000    -0.218399   
N23      N      0.435890000000     0.175920000000     0.691020000000    -0.218968   
N24      N      0.487580000000     0.121850000000     0.568690000000    -0.218782   
N25      N      0.526000000000     0.447320000000     0.911480000000    -0.217314   
N26      N      0.491140000000     0.365040000000     0.812410000000    -0.21805    
N27      N      0.531370000000     0.177610000000     0.943260000000    -0.217115   
N28      N      0.473750000000     0.230010000000     0.820980000000    -0.218007   
N29      N      0.204640000000     0.425310000000     0.934140000000    -0.217053   
N30      N      0.223880000000     0.375140000000     0.822340000000    -0.218958   
N31      N      0.426550000000     0.415660000000     0.678090000000    -0.217417   
N32      N      0.476170000000     0.471270000000     0.554060000000    -0.216726   
N33      N      0.249300000000     0.612070000000     0.064970000000    -0.216992   
N34      N      0.275230000000     0.699880000000     0.164050000000    -0.216281   
N35      N      0.187670000000     0.662850000000     0.425980000000    -0.218251   
N36      N      0.208970000000     0.717500000000     0.297150000000    -0.218249   
N37      N      0.267530000000     0.930600000000     0.198440000000    -0.217922   
N38      N      0.230730000000     0.971900000000     0.068230000000    -0.218199   
N39      N      0.435890000000     0.675920000000     0.191020000000    -0.218968   
N40      N      0.487580000000     0.621850000000     0.068690000000    -0.218798   
N41      N      0.526000000000     0.947320000000     0.411480000000    -0.217131   
N42      N      0.491140000000     0.865040000000     0.312420000000    -0.218053   
N43      N      0.531370000000     0.677610000000     0.443270000000    -0.217146   
N44      N      0.473750000000     0.730010000000     0.320980000000    -0.218043   
N45      N      0.204640000000     0.925310000000     0.434140000000    -0.217125   
N46      N      0.223880000000     0.875140000000     0.322340000000    -0.218977   
N47      N      0.426550000000     0.915660000000     0.178090000000    -0.217383   
N48      N      0.476170000000     0.971270000000     0.054060000000    -0.216522   
N49      N      0.249300000000     0.612070000000     0.564970000000    -0.216982   
N50      N      0.275230000000     0.699880000000     0.664050000000    -0.216259   
N51      N      0.187670000000     0.662850000000     0.925980000000    -0.218254   
N52      N      0.208970000000     0.717500000000     0.797150000000    -0.218273   
N53      N      0.267530000000     0.930600000000     0.698440000000    -0.217955   
N54      N      0.230730000000     0.971900000000     0.568230000000    -0.218193   
N55      N      0.435890000000     0.675920000000     0.691020000000    -0.218968   
N56      N      0.487580000000     0.621850000000     0.568690000000    -0.218804   
N57      N      0.526000000000     0.947320000000     0.911480000000    -0.217076   
N58      N      0.491140000000     0.865040000000     0.812410000000    -0.218065   
N59      N      0.531370000000     0.677610000000     0.943260000000    -0.217126   
N60      N      0.473750000000     0.730010000000     0.820980000000    -0.218023   
N61      N      0.204640000000     0.925310000000     0.934140000000    -0.217103   
N62      N      0.223880000000     0.875140000000     0.822340000000    -0.218977   
N63      N      0.426550000000     0.915660000000     0.678090000000    -0.217383   
N64      N      0.476170000000     0.971270000000     0.554060000000    -0.216502   
N65      N      0.749300000000     0.112070000000     0.064970000000    -0.21697    
N66      N      0.775230000000     0.199880000000     0.164050000000    -0.2163     
N67      N      0.687670000000     0.162850000000     0.425980000000    -0.218237   
N68      N      0.708970000000     0.217500000000     0.297150000000    -0.21828    
N69      N      0.767530000000     0.430600000000     0.198440000000    -0.217911   
N70      N      0.730730000000     0.471900000000     0.068230000000    -0.218393   
N71      N      0.935880000000     0.175920000000     0.191020000000    -0.218992   
N72      N      0.987570000000     0.121850000000     0.068690000000    -0.218748   
N73      N      0.026010000000     0.447320000000     0.411480000000    -0.217377   
N74      N      0.991140000000     0.365040000000     0.312420000000    -0.217992   
N75      N      0.031370000000     0.177610000000     0.443270000000    -0.217174   
N76      N      0.973750000000     0.230010000000     0.320980000000    -0.218022   
N77      N      0.704640000000     0.425310000000     0.434140000000    -0.217074   
N78      N      0.723880000000     0.375140000000     0.322340000000    -0.218958   
N79      N      0.926560000000     0.415660000000     0.178090000000    -0.217391   
N80      N      0.976170000000     0.471270000000     0.054060000000    -0.216706   
N81      N      0.749300000000     0.112070000000     0.564970000000    -0.21696    
N82      N      0.775230000000     0.199880000000     0.664050000000    -0.216278   
N83      N      0.687670000000     0.162850000000     0.925980000000    -0.21824    
N84      N      0.708970000000     0.217500000000     0.797150000000    -0.218303   
N85      N      0.767530000000     0.430600000000     0.698440000000    -0.217944   
N86      N      0.730730000000     0.471900000000     0.568230000000    -0.218387   
N87      N      0.935880000000     0.175920000000     0.691020000000    -0.218992   
N88      N      0.987570000000     0.121850000000     0.568690000000    -0.218755   
N89      N      0.026010000000     0.447320000000     0.911480000000    -0.217322   
N90      N      0.991140000000     0.365040000000     0.812410000000    -0.218004   
N91      N      0.031370000000     0.177610000000     0.943260000000    -0.217153   
N92      N      0.973750000000     0.230010000000     0.820980000000    -0.218001   
N93      N      0.704640000000     0.425310000000     0.934140000000    -0.217053   
N94      N      0.723880000000     0.375140000000     0.822340000000    -0.218957   
N95      N      0.926560000000     0.415660000000     0.678090000000    -0.217391   
N96      N      0.976170000000     0.471270000000     0.554060000000    -0.216686   
N97      N      0.749300000000     0.612070000000     0.064970000000    -0.216993   
N98      N      0.775230000000     0.699880000000     0.164050000000    -0.216269   
N99      N      0.687670000000     0.662850000000     0.425980000000    -0.218259   
N100     N      0.708970000000     0.717500000000     0.297150000000    -0.218296   
N101     N      0.767530000000     0.930600000000     0.198440000000    -0.21792    
N102     N      0.730730000000     0.971900000000     0.068230000000    -0.218187   
N103     N      0.935880000000     0.675920000000     0.191020000000    -0.218992   
N104     N      0.987570000000     0.621850000000     0.068690000000    -0.21877    
N105     N      0.026010000000     0.947320000000     0.411480000000    -0.217138   
N106     N      0.991140000000     0.865040000000     0.312420000000    -0.218008   
N107     N      0.031370000000     0.677610000000     0.443270000000    -0.217185   
N108     N      0.973750000000     0.730010000000     0.320980000000    -0.218038   
N109     N      0.704640000000     0.925310000000     0.434140000000    -0.217124   
N110     N      0.723880000000     0.875140000000     0.322340000000    -0.218976   
N111     N      0.926560000000     0.915660000000     0.178090000000    -0.217357   
N112     N      0.976170000000     0.971270000000     0.054060000000    -0.216481   
N113     N      0.749300000000     0.612070000000     0.564970000000    -0.216984   
N114     N      0.775230000000     0.699880000000     0.664050000000    -0.216247   
N115     N      0.687670000000     0.662850000000     0.925980000000    -0.218263   
N116     N      0.708970000000     0.717500000000     0.797150000000    -0.21832    
N117     N      0.767530000000     0.930600000000     0.698440000000    -0.217953   
N118     N      0.730730000000     0.971900000000     0.568230000000    -0.218181   
N119     N      0.935880000000     0.675920000000     0.691020000000    -0.218992   
N120     N      0.987570000000     0.621850000000     0.568690000000    -0.218777   
N121     N      0.026010000000     0.947320000000     0.911480000000    -0.217083   
N122     N      0.991140000000     0.865040000000     0.812410000000    -0.21802    
N123     N      0.031370000000     0.677610000000     0.943260000000    -0.217164   
N124     N      0.973750000000     0.730010000000     0.820980000000    -0.218017   
N125     N      0.704640000000     0.925310000000     0.934140000000    -0.217103   
N126     N      0.723880000000     0.875140000000     0.822340000000    -0.218976   
N127     N      0.926560000000     0.915660000000     0.678090000000    -0.217357   
N128     N      0.976170000000     0.971270000000     0.554060000000    -0.216461   
O1       O      0.569520000000     0.456530000000     0.464920000000    -0.369162   
O2       O      0.154360000000     0.142940000000     0.481020000000    -0.367799   
O3       O      0.533850000000     0.107350000000     0.452190000000    -0.385969   
O4       O      0.198990000000     0.494140000000     0.449650000000    -0.383036   
O5       O      0.579300000000     0.148930000000     0.486880000000    -0.36128    
O6       O      0.148700000000     0.448180000000     0.473830000000    -0.37143    
O7       O      0.184830000000     0.094410000000     0.443100000000    -0.39499    
O8       O      0.534070000000     0.510930000000     0.438080000000    -0.395058   
O9       O      0.158090000000     0.476610000000     0.043630000000    -0.391446   
O10      O      0.562730000000     0.115240000000     0.050330000000    -0.390031   
O11      O      0.501560000000     0.516580000000     0.009400000000    -0.366758   
O12      O      0.223970000000     0.078610000000     0.012390000000    -0.36617    
O13      O      0.172380000000     0.110220000000     0.049860000000    -0.3885     
O14      O      0.552220000000     0.473320000000     0.036680000000    -0.388357   
O15      O      0.216810000000     0.510030000000     0.015630000000    -0.366191   
O16      O      0.506500000000     0.084560000000     0.016780000000    -0.368379   
O17      O      0.612730000000     0.547800000000     0.492760000000    -0.67262    
O18      O      0.390420000000     0.396560000000     0.232320000000    -0.369071   
O19      O      0.311920000000     0.209580000000     0.220800000000    -0.366265   
O20      O      0.428180000000     0.245770000000     0.201770000000    -0.388439   
O21      O      0.272840000000     0.360320000000     0.206740000000    -0.38916    
O22      O      0.387160000000     0.199890000000     0.235740000000    -0.371614   
O23      O      0.315410000000     0.403260000000     0.242550000000    -0.362689   
O24      O      0.278580000000     0.263590000000     0.191580000000    -0.393323   
O25      O      0.422220000000     0.347350000000     0.195710000000    -0.392776   
O26      O      0.299440000000     0.372340000000     0.303340000000    -0.384857   
O27      O      0.398840000000     0.232820000000     0.300510000000    -0.388393   
O28      O      0.461580000000     0.332500000000     0.261110000000    -0.364407   
O29      O      0.238230000000     0.267030000000     0.258180000000    -0.36694    
O30      O      0.286770000000     0.224770000000     0.289200000000    -0.392166   
O31      O      0.413160000000     0.364370000000     0.301180000000    -0.391297   
O32      O      0.245410000000     0.335290000000     0.272700000000    -0.371432   
O33      O      0.454620000000     0.265210000000     0.267830000000    -0.365849   
O34      O      0.350240000000     0.301280000000     0.251450000000    -0.679839   
O35      O      0.569520000000     0.456530000000     0.964920000000    -0.368962   
O36      O      0.154360000000     0.142940000000     0.981020000000    -0.367563   
O37      O      0.533850000000     0.107350000000     0.952190000000    -0.385972   
O38      O      0.198990000000     0.494140000000     0.949660000000    -0.383026   
O39      O      0.579300000000     0.148930000000     0.986870000000    -0.361119   
O40      O      0.148700000000     0.448180000000     0.973840000000    -0.371166   
O41      O      0.184830000000     0.094410000000     0.943100000000    -0.394994   
O42      O      0.534070000000     0.510930000000     0.938080000000    -0.395044   
O43      O      0.158090000000     0.476610000000     0.543630000000    -0.391459   
O44      O      0.562730000000     0.115240000000     0.550320000000    -0.390101   
O45      O      0.501560000000     0.516580000000     0.509400000000    -0.366561   
O46      O      0.223970000000     0.078610000000     0.512390000000    -0.365962   
O47      O      0.172380000000     0.110220000000     0.549860000000    -0.388516   
O48      O      0.552220000000     0.473320000000     0.536680000000    -0.388353   
O49      O      0.216810000000     0.510030000000     0.515630000000    -0.366006   
O50      O      0.506500000000     0.084560000000     0.516780000000    -0.368188   
O51      O      0.612730000000     0.547800000000     0.992760000000    -0.672354   
O52      O      0.390420000000     0.396560000000     0.732320000000    -0.369072   
O53      O      0.311920000000     0.209580000000     0.720810000000    -0.366217   
O54      O      0.428180000000     0.245770000000     0.701770000000    -0.388436   
O55      O      0.272840000000     0.360320000000     0.706740000000    -0.389204   
O56      O      0.387160000000     0.199890000000     0.735740000000    -0.371618   
O57      O      0.315410000000     0.403260000000     0.742540000000    -0.362685   
O58      O      0.278580000000     0.263590000000     0.691580000000    -0.393284   
O59      O      0.422220000000     0.347350000000     0.695710000000    -0.392772   
O60      O      0.299440000000     0.372340000000     0.803340000000    -0.384859   
O61      O      0.398840000000     0.232820000000     0.800500000000    -0.388467   
O62      O      0.461580000000     0.332500000000     0.761110000000    -0.364506   
O63      O      0.238230000000     0.267030000000     0.758190000000    -0.367003   
O64      O      0.286770000000     0.224770000000     0.789200000000    -0.3922     
O65      O      0.413160000000     0.364370000000     0.801180000000    -0.391295   
O66      O      0.245410000000     0.335290000000     0.772700000000    -0.37142    
O67      O      0.454620000000     0.265210000000     0.767830000000    -0.365941   
O68      O      0.350240000000     0.301280000000     0.751450000000    -0.679847   
O69      O      0.569520000000     0.956530000000     0.464920000000    -0.368748   
O70      O      0.154360000000     0.642940000000     0.481020000000    -0.367769   
O71      O      0.533850000000     0.607350000000     0.452190000000    -0.386005   
O72      O      0.198990000000     0.994140000000     0.449650000000    -0.383884   
O73      O      0.579300000000     0.648930000000     0.486880000000    -0.361261   
O74      O      0.148700000000     0.948180000000     0.473830000000    -0.371372   
O75      O      0.184830000000     0.594410000000     0.443100000000    -0.395069   
O76      O      0.534070000000     0.010930000000     0.438080000000    -0.393618   
O77      O      0.158090000000     0.976620000000     0.043630000000    -0.391181   
O78      O      0.562730000000     0.615240000000     0.050330000000    -0.390119   
O79      O      0.501560000000     0.016580000000     0.009400000000    -0.365305   
O80      O      0.223970000000     0.578610000000     0.012390000000    -0.366172   
O81      O      0.172380000000     0.610220000000     0.049860000000    -0.388579   
O82      O      0.552220000000     0.973320000000     0.036680000000    -0.388011   
O83      O      0.216810000000     0.010030000000     0.015630000000    -0.364671   
O84      O      0.506500000000     0.584560000000     0.016780000000    -0.36845    
O85      O      0.612730000000     0.047800000000     0.492760000000    -0.672136   
O86      O      0.390420000000     0.896560000000     0.232320000000    -0.369183   
O87      O      0.311920000000     0.709580000000     0.220800000000    -0.366293   
O88      O      0.428180000000     0.745770000000     0.201770000000    -0.388439   
O89      O      0.272840000000     0.860320000000     0.206740000000    -0.389169   
O90      O      0.387160000000     0.699890000000     0.235740000000    -0.371667   
O91      O      0.315410000000     0.903260000000     0.242550000000    -0.362821   
O92      O      0.278580000000     0.763590000000     0.191580000000    -0.393324   
O93      O      0.422220000000     0.847350000000     0.195710000000    -0.392876   
O94      O      0.299440000000     0.872340000000     0.303340000000    -0.384917   
O95      O      0.398840000000     0.732820000000     0.300510000000    -0.388417   
O96      O      0.461580000000     0.832500000000     0.261110000000    -0.364421   
O97      O      0.238230000000     0.767030000000     0.258180000000    -0.366947   
O98      O      0.286770000000     0.724770000000     0.289200000000    -0.392194   
O99      O      0.413160000000     0.864370000000     0.301180000000    -0.391354   
O100     O      0.245410000000     0.835290000000     0.272700000000    -0.371443   
O101     O      0.454620000000     0.765210000000     0.267830000000    -0.365857   
O102     O      0.350240000000     0.801280000000     0.251450000000    -0.679772   
O103     O      0.569520000000     0.956530000000     0.964920000000    -0.368548   
O104     O      0.154360000000     0.642940000000     0.981020000000    -0.367533   
O105     O      0.533850000000     0.607350000000     0.952190000000    -0.386008   
O106     O      0.198990000000     0.994140000000     0.949660000000    -0.383873   
O107     O      0.579300000000     0.648930000000     0.986870000000    -0.361098   
O108     O      0.148700000000     0.948180000000     0.973840000000    -0.371107   
O109     O      0.184830000000     0.594410000000     0.943100000000    -0.395074   
O110     O      0.534070000000     0.010930000000     0.938080000000    -0.393606   
O111     O      0.158090000000     0.976620000000     0.543630000000    -0.391194   
O112     O      0.562730000000     0.615240000000     0.550320000000    -0.390189   
O113     O      0.501560000000     0.016580000000     0.509400000000    -0.365109   
O114     O      0.223970000000     0.578610000000     0.512390000000    -0.365964   
O115     O      0.172380000000     0.610220000000     0.549860000000    -0.388596   
O116     O      0.552220000000     0.973320000000     0.536680000000    -0.388007   
O117     O      0.216810000000     0.010030000000     0.515630000000    -0.364488   
O118     O      0.506500000000     0.584560000000     0.516780000000    -0.368258   
O119     O      0.612730000000     0.047800000000     0.992760000000    -0.671871   
O120     O      0.390420000000     0.896560000000     0.732320000000    -0.369185   
O121     O      0.311920000000     0.709580000000     0.720810000000    -0.366245   
O122     O      0.428180000000     0.745770000000     0.701770000000    -0.388436   
O123     O      0.272840000000     0.860320000000     0.706740000000    -0.389213   
O124     O      0.387160000000     0.699890000000     0.735740000000    -0.371671   
O125     O      0.315410000000     0.903260000000     0.742540000000    -0.362817   
O126     O      0.278580000000     0.763590000000     0.691580000000    -0.393285   
O127     O      0.422220000000     0.847350000000     0.695710000000    -0.392873   
O128     O      0.299440000000     0.872340000000     0.803340000000    -0.384919   
O129     O      0.398840000000     0.732820000000     0.800500000000    -0.38849    
O130     O      0.461580000000     0.832500000000     0.761110000000    -0.364521   
O131     O      0.238230000000     0.767030000000     0.758190000000    -0.367011   
O132     O      0.286770000000     0.724770000000     0.789200000000    -0.392227   
O133     O      0.413160000000     0.864370000000     0.801180000000    -0.391352   
O134     O      0.245410000000     0.835290000000     0.772700000000    -0.371431   
O135     O      0.454620000000     0.765210000000     0.767830000000    -0.365949   
O136     O      0.350240000000     0.801280000000     0.751450000000    -0.679779   
O137     O      0.069520000000     0.456530000000     0.464920000000    -0.369172   
O138     O      0.654360000000     0.142940000000     0.481020000000    -0.367798   
O139     O      0.033850000000     0.107350000000     0.452190000000    -0.385993   
O140     O      0.698990000000     0.494140000000     0.449650000000    -0.383034   
O141     O      0.079300000000     0.148930000000     0.486880000000    -0.361284   
O142     O      0.648700000000     0.448180000000     0.473830000000    -0.371429   
O143     O      0.684830000000     0.094410000000     0.443100000000    -0.39499    
O144     O      0.034070000000     0.510930000000     0.438080000000    -0.39508    
O145     O      0.658090000000     0.476610000000     0.043630000000    -0.391442   
O146     O      0.062730000000     0.115240000000     0.050330000000    -0.390014   
O147     O      0.001560000000     0.516580000000     0.009400000000    -0.366771   
O148     O      0.723970000000     0.078610000000     0.012390000000    -0.366169   
O149     O      0.672380000000     0.110220000000     0.049860000000    -0.388498   
O150     O      0.052220000000     0.473320000000     0.036680000000    -0.388353   
O151     O      0.716810000000     0.510030000000     0.015630000000    -0.366189   
O152     O      0.006500000000     0.084560000000     0.016780000000    -0.368377   
O153     O      0.112730000000     0.547800000000     0.492760000000    -0.672617   
O154     O      0.890420000000     0.396560000000     0.232320000000    -0.369061   
O155     O      0.811920000000     0.209580000000     0.220800000000    -0.366255   
O156     O      0.928180000000     0.245770000000     0.201770000000    -0.388431   
O157     O      0.772840000000     0.360320000000     0.206740000000    -0.389157   
O158     O      0.887160000000     0.199890000000     0.235740000000    -0.371679   
O159     O      0.815410000000     0.403260000000     0.242550000000    -0.362688   
O160     O      0.778570000000     0.263590000000     0.191580000000    -0.393276   
O161     O      0.922220000000     0.347350000000     0.195710000000    -0.392761   
O162     O      0.799440000000     0.372340000000     0.303340000000    -0.384855   
O163     O      0.898840000000     0.232820000000     0.300510000000    -0.38839    
O164     O      0.961580000000     0.332500000000     0.261110000000    -0.364383   
O165     O      0.738230000000     0.267030000000     0.258180000000    -0.366936   
O166     O      0.786770000000     0.224770000000     0.289200000000    -0.392167   
O167     O      0.913160000000     0.364370000000     0.301180000000    -0.391294   
O168     O      0.745410000000     0.335290000000     0.272700000000    -0.371427   
O169     O      0.954620000000     0.265210000000     0.267830000000    -0.365831   
O170     O      0.850240000000     0.301280000000     0.251450000000    -0.679843   
O171     O      0.069520000000     0.456530000000     0.964920000000    -0.368972   
O172     O      0.654360000000     0.142940000000     0.981020000000    -0.367563   
O173     O      0.033850000000     0.107350000000     0.952190000000    -0.385996   
O174     O      0.698990000000     0.494140000000     0.949660000000    -0.383024   
O175     O      0.079300000000     0.148930000000     0.986870000000    -0.361123   
O176     O      0.648700000000     0.448180000000     0.973840000000    -0.371165   
O177     O      0.684830000000     0.094410000000     0.943100000000    -0.394994   
O178     O      0.034070000000     0.510930000000     0.938080000000    -0.395066   
O179     O      0.658090000000     0.476610000000     0.543630000000    -0.391454   
O180     O      0.062730000000     0.115240000000     0.550320000000    -0.390084   
O181     O      0.001560000000     0.516580000000     0.509400000000    -0.366573   
O182     O      0.723970000000     0.078610000000     0.512390000000    -0.365961   
O183     O      0.672380000000     0.110220000000     0.549860000000    -0.388515   
O184     O      0.052220000000     0.473320000000     0.536680000000    -0.388349   
O185     O      0.716810000000     0.510030000000     0.515630000000    -0.366004   
O186     O      0.006500000000     0.084560000000     0.516780000000    -0.368186   
O187     O      0.112730000000     0.547800000000     0.992760000000    -0.67235    
O188     O      0.890420000000     0.396560000000     0.732320000000    -0.369062   
O189     O      0.811920000000     0.209580000000     0.720810000000    -0.366207   
O190     O      0.928180000000     0.245770000000     0.701770000000    -0.388428   
O191     O      0.772840000000     0.360320000000     0.706740000000    -0.389201   
O192     O      0.887160000000     0.199890000000     0.735740000000    -0.371683   
O193     O      0.815410000000     0.403260000000     0.742540000000    -0.362684   
O194     O      0.778570000000     0.263590000000     0.691580000000    -0.393237   
O195     O      0.922220000000     0.347350000000     0.695710000000    -0.392757   
O196     O      0.799440000000     0.372340000000     0.803340000000    -0.384857   
O197     O      0.898840000000     0.232820000000     0.800500000000    -0.388463   
O198     O      0.961580000000     0.332500000000     0.761110000000    -0.364483   
O199     O      0.738230000000     0.267030000000     0.758190000000    -0.367      
O200     O      0.786770000000     0.224770000000     0.789200000000    -0.3922     
O201     O      0.913160000000     0.364370000000     0.801180000000    -0.391292   
O202     O      0.745410000000     0.335290000000     0.772700000000    -0.371414   
O203     O      0.954620000000     0.265210000000     0.767830000000    -0.365922   
O204     O      0.850240000000     0.301280000000     0.751450000000    -0.679851   
O205     O      0.069520000000     0.956530000000     0.464920000000    -0.368758   
O206     O      0.654360000000     0.642940000000     0.481020000000    -0.367768   
O207     O      0.033850000000     0.607350000000     0.452190000000    -0.386029   
O208     O      0.698990000000     0.994140000000     0.449650000000    -0.383882   
O209     O      0.079300000000     0.648930000000     0.486880000000    -0.361265   
O210     O      0.648700000000     0.948180000000     0.473830000000    -0.371371   
O211     O      0.684830000000     0.594410000000     0.443100000000    -0.395069   
O212     O      0.034070000000     0.010930000000     0.438080000000    -0.39364    
O213     O      0.658090000000     0.976620000000     0.043630000000    -0.391177   
O214     O      0.062730000000     0.615240000000     0.050330000000    -0.390102   
O215     O      0.001560000000     0.016580000000     0.009400000000    -0.365318   
O216     O      0.723970000000     0.578610000000     0.012390000000    -0.366171   
O217     O      0.672380000000     0.610220000000     0.049860000000    -0.388578   
O218     O      0.052220000000     0.973320000000     0.036680000000    -0.388007   
O219     O      0.716810000000     0.010030000000     0.015630000000    -0.36467    
O220     O      0.006500000000     0.584560000000     0.016780000000    -0.368448   
O221     O      0.112730000000     0.047800000000     0.492760000000    -0.672133   
O222     O      0.890420000000     0.896560000000     0.232320000000    -0.369173   
O223     O      0.811920000000     0.709580000000     0.220800000000    -0.366283   
O224     O      0.928180000000     0.745770000000     0.201770000000    -0.388431   
O225     O      0.772840000000     0.860320000000     0.206740000000    -0.389166   
O226     O      0.887160000000     0.699890000000     0.235740000000    -0.371731   
O227     O      0.815410000000     0.903260000000     0.242550000000    -0.36282    
O228     O      0.778570000000     0.763590000000     0.191580000000    -0.393277   
O229     O      0.922220000000     0.847350000000     0.195710000000    -0.392861   
O230     O      0.799440000000     0.872340000000     0.303340000000    -0.384915   
O231     O      0.898840000000     0.732820000000     0.300510000000    -0.388413   
O232     O      0.961580000000     0.832500000000     0.261110000000    -0.364398   
O233     O      0.738230000000     0.767030000000     0.258180000000    -0.366944   
O234     O      0.786770000000     0.724770000000     0.289200000000    -0.392194   
O235     O      0.913160000000     0.864370000000     0.301180000000    -0.391351   
O236     O      0.745410000000     0.835290000000     0.272700000000    -0.371438   
O237     O      0.954620000000     0.765210000000     0.267830000000    -0.365838   
O238     O      0.850240000000     0.801280000000     0.251450000000    -0.679776   
O239     O      0.069520000000     0.956530000000     0.964920000000    -0.368558   
O240     O      0.654360000000     0.642940000000     0.981020000000    -0.367532   
O241     O      0.033850000000     0.607350000000     0.952190000000    -0.386032   
O242     O      0.698990000000     0.994140000000     0.949660000000    -0.383871   
O243     O      0.079300000000     0.648930000000     0.986870000000    -0.361102   
O244     O      0.648700000000     0.948180000000     0.973840000000    -0.371107   
O245     O      0.684830000000     0.594410000000     0.943100000000    -0.395073   
O246     O      0.034070000000     0.010930000000     0.938080000000    -0.393627   
O247     O      0.658090000000     0.976620000000     0.543630000000    -0.391189   
O248     O      0.062730000000     0.615240000000     0.550320000000    -0.390172   
O249     O      0.001560000000     0.016580000000     0.509400000000    -0.365121   
O250     O      0.723970000000     0.578610000000     0.512390000000    -0.365963   
O251     O      0.672380000000     0.610220000000     0.549860000000    -0.388594   
O252     O      0.052220000000     0.973320000000     0.536680000000    -0.388003   
O253     O      0.716810000000     0.010030000000     0.515630000000    -0.364486   
O254     O      0.006500000000     0.584560000000     0.516780000000    -0.368256   
O255     O      0.112730000000     0.047800000000     0.992760000000    -0.671867   
O256     O      0.890420000000     0.896560000000     0.732320000000    -0.369174   
O257     O      0.811920000000     0.709580000000     0.720810000000    -0.366235   
O258     O      0.928180000000     0.745770000000     0.701770000000    -0.388428   
O259     O      0.772840000000     0.860320000000     0.706740000000    -0.38921    
O260     O      0.887160000000     0.699890000000     0.735740000000    -0.371736   
O261     O      0.815410000000     0.903260000000     0.742540000000    -0.362817   
O262     O      0.778570000000     0.763590000000     0.691580000000    -0.393238   
O263     O      0.922220000000     0.847350000000     0.695710000000    -0.392857   
O264     O      0.799440000000     0.872340000000     0.803340000000    -0.384916   
O265     O      0.898840000000     0.732820000000     0.800500000000    -0.388487   
O266     O      0.961580000000     0.832500000000     0.761110000000    -0.364497   
O267     O      0.738230000000     0.767030000000     0.758190000000    -0.367007   
O268     O      0.786770000000     0.724770000000     0.789200000000    -0.392227   
O269     O      0.913160000000     0.864370000000     0.801180000000    -0.391349   
O270     O      0.745410000000     0.835290000000     0.772700000000    -0.371426   
O271     O      0.954620000000     0.765210000000     0.767830000000    -0.36593    
O272     O      0.850240000000     0.801280000000     0.751450000000    -0.679784   


