data_structure

_audit_creation_method RASPA-1.0
_audit_creation_date 2023-6-4
_audit_author_name 'Poobodin Mano'

_cell_length_a    22.9576
_cell_length_b    23.4567
_cell_length_c    23.481
_cell_angle_alpha 87.1372
_cell_angle_beta  93.8162
_cell_angle_gamma 120.434
_cell_volume      10876.4

_symmetry_cell_setting          triclinic
_symmetry_space_group_name_Hall 'P 1'
_symmetry_space_group_name_H-M  'P 1'
_symmetry_Int_Tables_number     1

_symmetry_equiv_pos_as_xyz 'x,y,z'

loop_
_atom_site_label
_atom_site_type_symbol
_atom_site_fract_x
_atom_site_fract_y
_atom_site_fract_z
_atom_site_charge
C1       C      0.078500000000     0.192500000000     0.009150000000     0.468715   
C2       C      0.939280000000     0.913860000000     0.033740000000     0.464744   
C3       C      0.057450000000     0.052210000000     0.919740000000     0.531217   
C4       C      0.968110000000     0.098520000000     0.145630000000     0.431056   
C5       C      0.105260000000     0.072370000000     0.206250000000     0.5254     
C6       C      0.227680000000     0.102050000000     0.970430000000     0.397408   
C7       C      0.214220000000     0.204300000000     0.095200000000     0.424871   
C8       C      0.091540000000     0.929600000000     0.109670000000     0.498387   
C9       C      0.094620000000     0.053440000000     0.430370000000     0.44137    
C10      C      0.041980000000     0.174660000000     0.627780000000     0.482687   
C11      C      0.917730000000     0.058170000000     0.545170000000     0.499671   
C12      C      0.209060000000     0.167800000000     0.504180000000     0.474049   
C13      C      0.212420000000     0.083690000000     0.631270000000     0.471382   
C14      C      0.919460000000     0.911160000000     0.586620000000     0.493626   
C15      C      0.028220000000     0.908920000000     0.527190000000     0.452021   
C16      C      0.100560000000     0.081560000000     0.710770000000     0.459862   
C17      C      0.938120000000     0.389630000000     0.044040000000     0.346183   
C18      C      0.124250000000     0.733080000000     0.056600000000     0.498062   
C19      C      0.930000000000     0.537440000000     0.086420000000     0.507294   
C20      C      0.109370000000     0.588860000000     0.942650000000     0.481223   
C21      C      0.220360000000     0.561760000000     0.056690000000     0.483395   
C22      C      0.031030000000     0.524160000000     0.211950000000     0.465798   
C23      C      0.083610000000     0.403400000000     0.061750000000     0.367186   
C24      C      0.219410000000     0.693140000000     0.152370000000     0.502438   
C25      C      0.928070000000     0.408260000000     0.523770000000     0.503902   
C26      C      0.093740000000     0.728490000000     0.557230000000     0.421674   
C27      C      0.933600000000     0.571070000000     0.579080000000     0.504018   
C28      C      0.053140000000     0.526260000000     0.441600000000     0.477836   
C29      C      0.207210000000     0.569780000000     0.538650000000     0.494457   
C30      C      0.034540000000     0.561240000000     0.710830000000     0.470825   
C31      C      0.028780000000     0.398210000000     0.642050000000     0.458611   
C32      C      0.212090000000     0.684240000000     0.617950000000     0.445136   
C33      C      0.440090000000     0.078380000000     0.984110000000     0.488532   
C34      C      0.561280000000     0.906680000000     0.053750000000     0.471625   
C35      C      0.559770000000     0.072730000000     0.918010000000     0.484804   
C36      C      0.439430000000     0.910860000000     0.126460000000     0.458169   
C37      C      0.532730000000     0.066730000000     0.198590000000     0.48847    
C38      C      0.705000000000     0.168630000000     0.003400000000     0.497122   
C39      C      0.527840000000     0.172440000000     0.110910000000     0.472832   
C40      C      0.710380000000     0.059100000000     0.095790000000     0.441367   
C41      C      0.422400000000     0.065320000000     0.553000000000     0.465539   
C42      C      0.559750000000     0.935230000000     0.509390000000     0.473888   
C43      C      0.559570000000     0.067530000000     0.423990000000     0.461303   
C44      C      0.461600000000     0.902620000000     0.650840000000     0.425413   
C45      C      0.599470000000     0.064050000000     0.708880000000     0.489252   
C46      C      0.701000000000     0.204970000000     0.489630000000     0.49264    
C47      C      0.569850000000     0.203530000000     0.609550000000     0.491533   
C48      C      0.698460000000     0.025870000000     0.605460000000     0.435198   
C49      C      0.431550000000     0.416190000000     0.023620000000     0.493591   
C50      C      0.576360000000     0.682630000000     0.010430000000     0.478022   
C51      C      0.431500000000     0.527460000000     0.138910000000     0.468355   
C52      C      0.555770000000     0.507140000000     0.920560000000     0.488557   
C53      C      0.706580000000     0.522620000000     0.001730000000     0.52146    
C54      C      0.594660000000     0.556730000000     0.202920000000     0.492669   
C55      C      0.529680000000     0.388400000000     0.134460000000     0.441248   
C56      C      0.726060000000     0.696630000000     0.073850000000     0.506929   
C57      C      0.443060000000     0.383730000000     0.491010000000     0.381862   
C58      C      0.585060000000     0.715050000000     0.527830000000     0.467191   
C59      C      0.448740000000     0.584360000000     0.574470000000     0.444231   
C60      C      0.548690000000     0.546770000000     0.406910000000     0.569712   
C61      C      0.692170000000     0.549380000000     0.492990000000     0.481177   
C62      C      0.519390000000     0.513750000000     0.688660000000     0.42939    
C63      C      0.539020000000     0.412630000000     0.611590000000     0.449264   
C64      C      0.718780000000     0.681720000000     0.589610000000     0.502139   
C65      C      0.565790000000     0.484130000000     0.773450000000    -0.0153801  
C66      C      0.488910000000     0.531370000000     0.780460000000    -0.100803   
C67      C      0.542850000000     0.449170000000     0.831400000000    -0.0040264  
C68      C      0.474770000000     0.503180000000     0.842020000000     0.322941   
C69      C      0.580320000000     0.492960000000     0.292700000000    -0.0118443  
C70      C      0.628030000000     0.614840000000     0.292470000000    -0.102088   
C71      C      0.515660000000     0.482070000000     0.319500000000    -0.00863585 
C72      C      0.561160000000     0.603420000000     0.313740000000     0.32935    
C73      C      0.591080000000     0.801280000000     0.459420000000    -0.0113841  
C74      C      0.535630000000     0.781460000000     0.554250000000    -0.0921526  
C75      C      0.602480000000     0.872350000000     0.461920000000     0.016638   
C76      C      0.499660000000     0.813810000000     0.520610000000     0.331923   
C77      C      0.506410000000     0.302590000000     0.657300000000    -0.0250576  
C78      C      0.586100000000     0.348340000000     0.577760000000    -0.110896   
C79      C      0.543780000000     0.264740000000     0.679370000000    -0.00531412 
C80      C      0.630870000000     0.326030000000     0.609070000000     0.330278   
C81      C      0.620610000000     0.029500000000     0.803030000000    -0.0164701  
C82      C      0.640930000000     0.143110000000     0.786850000000    -0.0958398  
C83      C      0.556710000000     0.010500000000     0.834850000000    -0.00710786 
C84      C      0.579540000000     0.127230000000     0.821040000000     0.324046   
C85      C      0.601390000000     0.070840000000     0.329450000000    -0.0124108  
C86      C      0.477630000000     0.029820000000     0.339430000000    -0.102198   
C87      C      0.603300000000     0.120500000000     0.284410000000    -0.00731781 
C88      C      0.479170000000     0.072890000000     0.286810000000     0.325278   
C89      C      0.579100000000     0.758500000000     0.081100000000    -0.0056874  
C90      C      0.601980000000     0.795220000000     0.979280000000    -0.0922563  
C91      C      0.542700000000     0.797640000000     0.086450000000    -0.0099881  
C92      C      0.561630000000     0.831260000000     0.982720000000     0.321074   
C93      C      0.590260000000     0.335260000000     0.180530000000    -0.0151745  
C94      C      0.467040000000     0.275900000000     0.179960000000    -0.0965589  
C95      C      0.591520000000     0.288160000000     0.138800000000    -0.00419709 
C96      C      0.461440000000     0.221950000000     0.140650000000     0.316595   
C97      C      0.815090000000     0.244300000000     0.455640000000    -0.00501593 
C98      C      0.761860000000     0.312550000000     0.440440000000    -0.0898691  
C99      C      0.870870000000     0.293940000000     0.495590000000    -0.00582724 
C100     C      0.813560000000     0.364960000000     0.481610000000     0.316833   
C101     C      0.270740000000     0.798460000000     0.651500000000    -0.0112812  
C102     C      0.317840000000     0.726880000000     0.680170000000    -0.0885745  
C103     C      0.340180000000     0.855160000000     0.634970000000    -0.00337298 
C104     C      0.389320000000     0.780350000000     0.662110000000     0.316302   
C105     C      0.751920000000     0.497110000000     0.541710000000    -0.0194154  
C106     C      0.812160000000     0.589640000000     0.471180000000    -0.09586    
C107     C      0.812310000000     0.529260000000     0.583970000000     0.00937366 
C108     C      0.878780000000     0.614820000000     0.508790000000     0.328719   
C109     C      0.371770000000     0.612650000000     0.614400000000    -0.018698   
C110     C      0.379430000000     0.611360000000     0.507160000000    -0.0981008  
C111     C      0.295490000000     0.569770000000     0.602820000000     0.01384    
C112     C      0.323650000000     0.629740000000     0.506300000000     0.33379    
C113     C      0.053310000000     0.516830000000     0.802010000000    -0.0129348  
C114     C      0.099150000000     0.639140000000     0.788940000000    -0.0955194  
C115     C      0.038240000000     0.520530000000     0.862910000000    -0.00592721 
C116     C      0.093650000000     0.643930000000     0.853690000000     0.321209   
C117     C      0.041760000000     0.466470000000     0.299800000000    -0.0215978  
C118     C      0.024940000000     0.565820000000     0.303220000000    -0.103524   
C119     C      0.015250000000     0.447160000000     0.361010000000    -0.00177045 
C120     C      0.986490000000     0.535410000000     0.356810000000     0.3284     
C121     C      0.867500000000     0.270000000000     0.045780000000    -0.0196421  
C122     C      0.849360000000     0.338140000000     0.966370000000    -0.0892543  
C123     C      0.825680000000     0.214660000000     0.003840000000     0.0108693  
C124     C      0.773910000000     0.283960000000     0.968860000000     0.31808    
C125     C      0.319110000000     0.849530000000     0.144350000000    -0.0132672  
C126     C      0.390130000000     0.794620000000     0.157170000000    -0.099377   
C127     C      0.274350000000     0.803500000000     0.191370000000    -0.00582829 
C128     C      0.336540000000     0.743730000000     0.197660000000     0.325198   
C129     C      0.807430000000     0.464370000000     0.060640000000    -0.0193079  
C130     C      0.864700000000     0.588250000000     0.046310000000    -0.108821   
C131     C      0.764350000000     0.457340000000     0.005200000000     0.00588027 
C132     C      0.828420000000     0.578110000000     0.987350000000     0.3422     
C133     C      0.343910000000     0.615360000000     0.073340000000    -0.0179356  
C134     C      0.267170000000     0.525980000000     0.139480000000    -0.112453   
C135     C      0.391000000000     0.587260000000     0.077410000000     0.00054922 
C136     C      0.310910000000     0.493780000000     0.142840000000     0.336227   
C137     C      0.824910000000     0.737640000000     0.649280000000    -0.0142174  
C138     C      0.825570000000     0.739270000000     0.544530000000    -0.10024    
C139     C      0.853880000000     0.813400000000     0.648060000000    -0.00626597 
C140     C      0.838930000000     0.809000000000     0.538590000000     0.328648   
C141     C      0.383230000000     0.263090000000     0.476890000000    -0.0208901  
C142     C      0.321200000000     0.329200000000     0.473970000000    -0.108292   
C143     C      0.315550000000     0.203820000000     0.453620000000    -0.00349629 
C144     C      0.261610000000     0.271110000000     0.443850000000     0.328293   
C145     C      0.821920000000     0.084390000000     0.619490000000    -0.0182832  
C146     C      0.760460000000     0.970590000000     0.581430000000    -0.099399   
C147     C      0.855370000000     0.112250000000     0.562280000000    -0.00255975 
C148     C      0.795620000000     0.998450000000     0.524240000000     0.321106   
C149     C      0.321470000000     0.009700000000     0.609550000000    -0.0173362  
C150     C      0.391720000000     0.131360000000     0.607930000000    -0.104704   
C151     C      0.256950000000     0.013020000000     0.609820000000     0.00452652 
C152     C      0.330820000000     0.139780000000     0.611440000000     0.325362   
C153     C      0.012810000000     0.814680000000     0.586260000000    -0.0115438  
C154     C      0.008830000000     0.808760000000     0.480470000000    -0.0960597  
C155     C      0.080770000000     0.818460000000     0.591450000000    -0.00364694 
C156     C      0.072210000000     0.800840000000     0.485720000000     0.324085   
C157     C      0.971750000000     0.276770000000     0.656390000000    -0.0149215  
C158     C      0.092220000000     0.344490000000     0.622880000000    -0.107597   
C159     C      0.989580000000     0.224860000000     0.681170000000    -0.00506135 
C160     C      0.107160000000     0.293600000000     0.651060000000     0.331137   
C161     C      0.080870000000     0.013770000000     0.798510000000    -0.0184753  
C162     C      0.126920000000     0.135870000000     0.803930000000    -0.105083   
C163     C      0.016830000000     0.000410000000     0.827010000000    -0.00285037 
C164     C      0.063040000000     0.120870000000     0.834240000000     0.328731   
C165     C      0.110020000000     0.010270000000     0.343320000000    -0.020609   
C166     C      0.106670000000     0.117400000000     0.341590000000    -0.108917   
C167     C      0.151210000000     0.035090000000     0.289400000000    -0.00168315 
C168     C      0.154960000000     0.142030000000     0.292580000000     0.330725   
C169     C      0.814680000000     0.857290000000     0.037380000000    -0.0195686  
C170     C      0.871480000000     0.795630000000     0.013470000000    -0.10306    
C171     C      0.790530000000     0.816070000000     0.093010000000    -0.0020804  
C172     C      0.851010000000     0.758240000000     0.070540000000     0.347536   
C173     C      0.288630000000     0.327980000000     0.096400000000    -0.0262899  
C174     C      0.332020000000     0.258130000000     0.063050000000    -0.10252    
C175     C      0.309620000000     0.368390000000     0.039360000000     0.00269866 
C176     C      0.350110000000     0.297390000000     0.006240000000     0.324751   
C177     C      0.799070000000     0.030710000000     0.090300000000    -0.0160967  
C178     C      0.808780000000     0.109520000000     0.165910000000    -0.0892165  
C179     C      0.845520000000     0.020900000000     0.134140000000     0.00526415 
C180     C      0.886510000000     0.135530000000     0.168790000000     0.330606   
C181     C      0.349170000000     0.155750000000     0.950720000000    -0.0248333  
C182     C      0.275250000000     0.030080000000     0.965260000000    -0.10301    
C183     C      0.399820000000     0.142380000000     0.922630000000     0.00115354 
C184     C      0.326410000000     0.022640000000     0.932970000000     0.324773   
C185     C      0.174050000000     0.851750000000     0.071790000000    -0.0105359  
C186     C      0.079600000000     0.765820000000     0.133460000000    -0.0863588  
C187     C      0.177440000000     0.896410000000     0.118330000000     0.000483322
C188     C      0.054400000000     0.814700000000     0.136810000000     0.322333   
C189     C      0.152350000000     0.360320000000     0.027630000000    -0.0197113  
C190     C      0.049390000000     0.289930000000     0.082930000000    -0.114459   
C191     C      0.121720000000     0.310230000000     0.978380000000    -0.0028423  
C192     C      0.015920000000     0.249380000000     0.028520000000     0.336522   
Co1      Co     0.065890000000     0.123210000000     0.104570000000     1.10442    
Co2      Co     0.084270000000     0.988610000000     0.011530000000     1.05836    
Co3      Co     0.152140000000     0.120250000000     0.013760000000     1.11745    
Co4      Co     0.009910000000     0.990520000000     0.122720000000     1.05041    
Co5      Co     0.130570000000     0.028200000000     0.546980000000     1.08476    
Co6      Co     0.995450000000     0.031090000000     0.635320000000     1.12467    
Co7      Co     0.991470000000     0.010610000000     0.499960000000     1.08612    
Co8      Co     0.140600000000     0.153980000000     0.600360000000     1.11537    
Co9      Co     0.076530000000     0.495590000000     0.043880000000     0.869055   
Co10     Co     0.064710000000     0.630960000000     0.123480000000     1.23173    
Co11     Co     0.015840000000     0.471950000000     0.097330000000     0.764856   
Co12     Co     0.184800000000     0.654520000000     0.040320000000     1.09395    
Co13     Co     0.077550000000     0.475080000000     0.553000000000     1.16667    
Co14     Co     0.077420000000     0.626800000000     0.600200000000     1.03996    
Co15     Co     0.965290000000     0.476940000000     0.621290000000     1.12285    
Co16     Co     0.127850000000     0.629480000000     0.515690000000     0.892325   
Co17     Co     0.458610000000     0.029510000000     0.087550000000     1.0775     
Co18     Co     0.605730000000     0.024510000000     0.002240000000     1.10798    
Co19     Co     0.583170000000     0.147860000000     0.023360000000     1.11544    
Co20     Co     0.585830000000     0.012440000000     0.134840000000     1.06513    
Co21     Co     0.502690000000     0.054740000000     0.627570000000     1.00901    
Co22     Co     0.657080000000     0.079620000000     0.521880000000     1.09214    
Co23     Co     0.558450000000     0.139290000000     0.510610000000     1.11018    
Co24     Co     0.557220000000     0.982240000000     0.608990000000     1.03119    
Co25     Co     0.577160000000     0.453800000000     0.033750000000     1.11511    
Co26     Co     0.580140000000     0.620600000000     0.104520000000     1.07832    
Co27     Co     0.499530000000     0.491340000000     0.109860000000     1.05302    
Co28     Co     0.646040000000     0.608180000000     0.991450000000     1.08003    
Co29     Co     0.548520000000     0.479560000000     0.517800000000     1.06928    
Co30     Co     0.585860000000     0.620970000000     0.619810000000     1.06863    
Co31     Co     0.465190000000     0.477620000000     0.575740000000     0.877637   
Co32     Co     0.636410000000     0.639810000000     0.490720000000     1.26273    
F1       F      0.467750000000     0.546390000000     0.875230000000    -0.425541   
F2       F      0.570680000000     0.658030000000     0.342390000000    -0.426597   
F3       F      0.457150000000     0.773110000000     0.477550000000    -0.404264   
F4       F      0.674910000000     0.324460000000     0.572440000000    -0.443097   
F5       F      0.592550000000     0.183370000000     0.849130000000    -0.435874   
F6       F      0.418150000000     0.040700000000     0.255510000000    -0.419895   
F7       F      0.590740000000     0.886630000000     0.947000000000    -0.4476     
F8       F      0.413500000000     0.160840000000     0.162020000000    -0.418803   
F9       F      0.832020000000     0.426870000000     0.457990000000    -0.422307   
F10      F      0.436740000000     0.780010000000     0.701620000000    -0.426595   
F11      F      0.930440000000     0.630020000000     0.472850000000    -0.376561   
F12      F      0.349950000000     0.695100000000     0.519800000000    -0.407056   
F13      F      0.150130000000     0.701850000000     0.872540000000    -0.42012    
F14      F      0.983490000000     0.583250000000     0.386710000000    -0.376288   
F15      F      0.743960000000     0.303430000000     0.006930000000    -0.445215   
F16      F      0.330500000000     0.682320000000     0.193840000000    -0.441797   
F17      F      0.823470000000     0.633030000000     0.970470000000    -0.413401   
F18      F      0.311600000000     0.470310000000     0.198100000000    -0.422113   
F19      F      0.875640000000     0.836570000000     0.490210000000    -0.431304   
F20      F      0.202800000000     0.272750000000     0.449730000000    -0.415462   
F21      F      0.805130000000     0.951810000000     0.498980000000    -0.436136   
F22      F      0.345450000000     0.186970000000     0.651800000000    -0.442772   
F23      F      0.065250000000     0.756760000000     0.445040000000    -0.391878   
F24      F      0.159440000000     0.294210000000     0.624110000000    -0.444707   
F25      F      0.076800000000     0.171500000000     0.870530000000    -0.428195   
F26      F      0.148880000000     0.190450000000     0.261050000000    -0.414303   
F27      F      0.846610000000     0.697850000000     0.068420000000    -0.412056   
F28      F      0.403020000000     0.295940000000     0.982640000000    -0.446913   
F29      F      0.917040000000     0.191520000000     0.135130000000    -0.424495   
F30      F      0.323160000000     0.963180000000     0.947730000000    -0.421146   
F31      F      0.002180000000     0.796860000000     0.095790000000    -0.425216   
F32      F      0.960740000000     0.187910000000     0.040010000000    -0.411742   
H1       H      0.526560000000     0.585200000000     0.782440000000     0.0895751  
H2       H      0.615220000000     0.530630000000     0.779580000000     0.0566345  
H3       H      0.583930000000     0.442020000000     0.851740000000     0.0530566  
H4       H      0.441270000000     0.525780000000     0.759830000000     0.0890392  
H5       H      0.425640000000     0.455800000000     0.841100000000     0.00634109 
H6       H      0.573060000000     0.451140000000     0.745920000000     0.0457367  
H7       H      0.496970000000     0.399620000000     0.825320000000     0.0555153  
H8       H      0.663370000000     0.619960000000     0.329270000000     0.086414   
H9       H      0.616840000000     0.495360000000     0.327430000000     0.0484517  
H10      H      0.495070000000     0.437630000000     0.348180000000     0.0582315  
H11      H      0.653380000000     0.661560000000     0.266850000000     0.0961486  
H12      H      0.525630000000     0.596330000000     0.276520000000     0.00867713 
H13      H      0.568540000000     0.450300000000     0.265850000000     0.0546525  
H14      H      0.476250000000     0.472550000000     0.285110000000     0.0708636  
H15      H      0.497200000000     0.735770000000     0.575740000000     0.0965652  
H16      H      0.549960000000     0.772390000000     0.427060000000     0.0994821  
H17      H      0.602220000000     0.891630000000     0.417750000000     0.0514448  
H18      H      0.571030000000     0.815570000000     0.587700000000     0.0842829  
H19      H      0.468510000000     0.821630000000     0.549740000000     0.0234348  
H20      H      0.638200000000     0.805130000000     0.445040000000     0.0666727  
H21      H      0.653420000000     0.904080000000     0.482260000000     0.0552338  
H22      H      0.549410000000     0.309010000000     0.548210000000     0.0857419  
H23      H      0.459770000000     0.268940000000     0.632510000000     0.0796946  
H24      H      0.506950000000     0.215070000000     0.696160000000     0.0569927  
H25      H      0.615470000000     0.391170000000     0.549790000000     0.101895   
H26      H      0.662400000000     0.361850000000     0.643020000000    -0.0051427  
H27      H      0.491880000000     0.319220000000     0.694640000000     0.0604344  
H28      H      0.578260000000     0.291870000000     0.716290000000     0.0522911  
H29      H      0.686990000000     0.163930000000     0.815960000000     0.0863728  
H30      H      0.664940000000     0.047750000000     0.833960000000     0.0548853  
H31      H      0.549330000000     0.971190000000     0.866880000000     0.0766934  
H32      H      0.649380000000     0.181500000000     0.753370000000     0.0888575  
H33      H      0.535190000000     0.113730000000     0.790990000000     0.00412595 
H34      H      0.615300000000     0.985450000000     0.782150000000     0.0679416  
H35      H      0.511810000000     0.988880000000     0.804480000000     0.0577929  
H36      H      0.458480000000     0.978510000000     0.325350000000     0.0949102  
H37      H      0.591950000000     0.025060000000     0.308810000000     0.0442145  
H38      H      0.647050000000     0.136740000000     0.257220000000     0.0544795  
H39      H      0.441130000000     0.027600000000     0.369550000000     0.0941186  
H40      H      0.484940000000     0.119690000000     0.302070000000     0.0035272  
H41      H      0.651790000000     0.092740000000     0.352390000000     0.0463785  
H42      H      0.611560000000     0.165660000000     0.305480000000     0.0452964  
H43      H      0.656840000000     0.830590000000     0.987590000000     0.0827417  
H44      H      0.632190000000     0.789400000000     0.097480000000     0.0379836  
H45      H      0.554650000000     0.818640000000     0.129960000000     0.0460364  
H46      H      0.594590000000     0.776100000000     0.935380000000     0.0899912  
H47      H      0.508550000000     0.798230000000     0.966800000000     0.00890116 
H48      H      0.555160000000     0.714080000000     0.109590000000     0.0180237  
H49      H      0.487180000000     0.763020000000     0.082330000000     0.0395148  
H50      H      0.469840000000     0.260560000000     0.225210000000     0.092054   
H51      H      0.590810000000     0.316560000000     0.224960000000     0.047677   
H52      H      0.634220000000     0.280390000000     0.153200000000     0.0608637  
H53      H      0.421500000000     0.280870000000     0.175680000000     0.0863259  
H54      H      0.443230000000     0.229050000000     0.097350000000     0.000361583
H55      H      0.636740000000     0.384750000000     0.177660000000     0.0566095  
H56      H      0.602040000000     0.312120000000     0.095670000000     0.0485742  
H57      H      0.780190000000     0.324820000000     0.396330000000     0.0860237  
H58      H      0.832270000000     0.255710000000     0.411160000000     0.0420948  
H59      H      0.919600000000     0.299450000000     0.483640000000     0.0478413  
H60      H      0.713010000000     0.311900000000     0.440020000000     0.092977   
H61      H      0.788830000000     0.359410000000     0.522290000000     0.0284924  
H62      H      0.804900000000     0.193420000000     0.466050000000     0.028892   
H63      H      0.861080000000     0.273140000000     0.539860000000     0.0476921  
H64      H      0.312850000000     0.732070000000     0.726150000000     0.0960755  
H65      H      0.262110000000     0.804240000000     0.696380000000     0.0553326  
H66      H      0.345200000000     0.901070000000     0.651550000000     0.0456912  
H67      H      0.310680000000     0.677090000000     0.675000000000     0.0759174  
H68      H      0.397310000000     0.766680000000     0.620120000000     0.0207882  
H69      H      0.231210000000     0.801750000000     0.623860000000     0.050113   
H70      H      0.340560000000     0.859520000000     0.587570000000     0.0636825  
H71      H      0.813150000000     0.560480000000     0.435740000000     0.120158   
H72      H      0.752690000000     0.457980000000     0.517520000000     0.094932   
H73      H      0.811620000000     0.488720000000     0.611160000000     0.0560867  
H74      H      0.810850000000     0.632960000000     0.451180000000     0.0820267  
H75      H      0.890390000000     0.660760000000     0.529470000000    -0.0163232  
H76      H      0.707990000000     0.475040000000     0.568840000000     0.0615425  
H77      H      0.806320000000     0.562610000000     0.612070000000     0.0423833  
H78      H      0.421780000000     0.648140000000     0.481320000000     0.119332   
H79      H      0.386350000000     0.664840000000     0.619510000000     0.0803563  
H80      H      0.269480000000     0.574660000000     0.638910000000     0.0509434  
H81      H      0.357340000000     0.562480000000     0.486610000000     0.0843464  
H82      H      0.299920000000     0.622010000000     0.462350000000     0.0137159  
H83      H      0.386220000000     0.595430000000     0.655070000000     0.0585497  
H84      H      0.281760000000     0.517060000000     0.601240000000     0.0518557  
H85      H      0.152370000000     0.654980000000     0.780310000000     0.100801   
H86      H      0.102910000000     0.519280000000     0.800900000000     0.0588836  
H87      H      0.039270000000     0.478940000000     0.886900000000     0.0602612  
H88      H      0.086590000000     0.674560000000     0.766160000000     0.0920224  
H89      H      0.048120000000     0.647610000000     0.860170000000     0.00450957 
H90      H      0.013280000000     0.467610000000     0.786200000000     0.0534691  
H91      H      0.986280000000     0.512530000000     0.864490000000     0.0464334  
H92      H      0.077660000000     0.605170000000     0.314590000000     0.101909   
H93      H      0.097620000000     0.488610000000     0.302840000000     0.0631615  
H94      H      0.044100000000     0.426900000000     0.385460000000     0.0553516  
H95      H      0.998920000000     0.588900000000     0.278360000000     0.0989739  
H96      H      0.933440000000     0.497350000000     0.344640000000     0.0175745  
H97      H      0.020180000000     0.420430000000     0.274870000000     0.0656888  
H98      H      0.961460000000     0.406710000000     0.358330000000     0.0493294  
H99      H      0.853370000000     0.387390000000     0.961100000000     0.0845852  
H100     H      0.838020000000     0.262170000000     0.084070000000     0.089203   
H101     H      0.812900000000     0.166210000000     0.024490000000     0.0649228  
H102     H      0.871710000000     0.330460000000     0.928990000000     0.0632509  
H103     H      0.748630000000     0.279890000000     0.925990000000     0.000521594
H104     H      0.913300000000     0.268150000000     0.059590000000     0.093711   
H105     H      0.855110000000     0.221070000000     0.965900000000     0.0551978  
H106     H      0.381890000000     0.771730000000     0.114870000000     0.0818739  
H107     H      0.295430000000     0.828940000000     0.102000000000     0.0612234  
H108     H      0.223740000000     0.798870000000     0.187090000000     0.0452071  
H109     H      0.441230000000     0.806640000000     0.174740000000     0.0779347  
H110     H      0.354670000000     0.760290000000     0.242220000000     0.00985775 
H111     H      0.323490000000     0.898700000000     0.148110000000     0.0488864  
H112     H      0.297030000000     0.824940000000     0.233920000000     0.0575278  
H113     H      0.835220000000     0.594210000000     0.078670000000     0.134267   
H114     H      0.777230000000     0.458620000000     0.097830000000     0.0604674  
H115     H      0.712690000000     0.413630000000     0.008900000000     0.0580815  
H116     H      0.914840000000     0.634300000000     0.044110000000     0.134062   
H117     H      0.858030000000     0.571340000000     0.955430000000    -0.00101504 
H118     H      0.818670000000     0.423440000000     0.063070000000     0.0788635  
H119     H      0.787300000000     0.447330000000     0.969580000000     0.0531661  
H120     H      0.281430000000     0.559690000000     0.175940000000     0.138283   
H121     H      0.361750000000     0.655600000000     0.104430000000     0.079599   
H122     H      0.442550000000     0.631100000000     0.080100000000     0.0589556  
H123     H      0.214070000000     0.485680000000     0.144760000000     0.107483   
H124     H      0.287190000000     0.451310000000     0.113930000000    -0.0143047  
H125     H      0.346510000000     0.637400000000     0.029840000000     0.0562927  
H126     H      0.384990000000     0.561400000000     0.037090000000     0.063006   
H127     H      0.874130000000     0.740490000000     0.549260000000     0.0816142  
H128     H      0.867430000000     0.727620000000     0.654590000000     0.0430529  
H129     H      0.896580000000     0.835500000000     0.680550000000     0.0462101  
H130     H      0.798950000000     0.711380000000     0.505370000000     0.0877872  
H131     H      0.791120000000     0.810100000000     0.532340000000     0.0216253  
H132     H      0.792780000000     0.714520000000     0.686550000000     0.049456   
H133     H      0.814050000000     0.823060000000     0.661150000000     0.0405818  
H134     H      0.308580000000     0.329460000000     0.518890000000     0.102592   
H135     H      0.392440000000     0.252570000000     0.522120000000     0.0546797  
H136     H      0.310950000000     0.156600000000     0.470200000000     0.0470868  
H137     H      0.327620000000     0.375040000000     0.451920000000     0.106224   
H138     H      0.270290000000     0.275370000000     0.397360000000     0.00841465 
H139     H      0.425110000000     0.267050000000     0.452560000000     0.0511645  
H140     H      0.317050000000     0.202780000000     0.406440000000     0.0453051  
H141     H      0.790370000000     0.954220000000     0.609530000000     0.0887695  
H142     H      0.855080000000     0.072840000000     0.648350000000     0.0484566  
H143     H      0.905960000000     0.157090000000     0.569260000000     0.0339739  
H144     H      0.709600000000     0.926400000000     0.573750000000     0.0854654  
H145     H      0.761800000000     0.008560000000     0.494780000000    -0.0131761  
H146     H      0.815980000000     0.122150000000     0.641160000000     0.0493059  
H147     H      0.823930000000     0.127430000000     0.535110000000     0.033533   
H148     H      0.412550000000     0.131750000000     0.652030000000     0.0866955  
H149     H      0.338910000000     0.005570000000     0.654110000000     0.0375381  
H150     H      0.222560000000     0.974040000000     0.639970000000     0.0413244  
H151     H      0.430040000000     0.174750000000     0.583720000000     0.0765665  
H152     H      0.322530000000     0.158380000000     0.569410000000    -0.00570472 
H153     H      0.309410000000     0.964360000000     0.586520000000     0.0414764  
H154     H      0.232080000000     0.001040000000     0.566250000000     0.0129541  
H155     H      0.962560000000     0.759230000000     0.478340000000     0.11847    
H156     H      0.972600000000     0.761930000000     0.589500000000     0.0488994  
H157     H      0.086820000000     0.800090000000     0.634690000000     0.0562576  
H158     H      0.009120000000     0.835710000000     0.440020000000     0.0992009  
H159     H      0.117230000000     0.849490000000     0.475710000000    -0.00790238 
H160     H      0.007060000000     0.840410000000     0.622170000000     0.0601806  
H161     H      0.122540000000     0.870610000000     0.587810000000     0.0403005  
H162     H      0.082360000000     0.335570000000     0.576210000000     0.0829732  
H163     H      0.942450000000     0.259190000000     0.615130000000     0.0422346  
H164     H      0.943950000000     0.175020000000     0.678450000000     0.0366366  
H165     H      0.138890000000     0.393480000000     0.629210000000     0.0892528  
H166     H      0.124890000000     0.307520000000     0.696210000000     0.000144849
H167     H      0.938970000000     0.281250000000     0.686540000000     0.0463634  
H168     H      0.005530000000     0.234600000000     0.727110000000     0.0510198  
H169     H      0.167640000000     0.143180000000     0.836290000000     0.0980201  
H170     H      0.118320000000     0.014960000000     0.831750000000     0.0498727  
H171     H      0.993900000000     0.952030000000     0.850360000000     0.0515332  
H172     H      0.145580000000     0.182560000000     0.778380000000     0.100723   
H173     H      0.024400000000     0.118030000000     0.801450000000    -0.00411316 
H174     H      0.069150000000     0.972690000000     0.769700000000     0.0591166  
H175     H      0.978520000000     0.997380000000     0.793790000000     0.036708   
H176     H      0.053930000000     0.098640000000     0.324290000000     0.0971229  
H177     H      0.056770000000     0.973520000000     0.330600000000     0.0544484  
H178     H      0.138690000000     0.992480000000     0.262220000000     0.0552461  
H179     H      0.121110000000     0.160020000000     0.369500000000     0.119164   
H180     H      0.207920000000     0.165060000000     0.310640000000     0.00331793 
H181     H      0.130650000000     0.984180000000     0.371130000000     0.0557573  
H182     H      0.205880000000     0.058170000000     0.302290000000     0.0522036  
H183     H      0.831840000000     0.767970000000     0.979630000000     0.10278    
H184     H      0.774750000000     0.832950000000     0.002960000000     0.0480967  
H185     H      0.741360000000     0.809970000000     0.103650000000     0.0415439  
H186     H      0.919220000000     0.799950000000     0.000340000000     0.126487   
H187     H      0.890480000000     0.786850000000     0.104140000000     0.0265872  
H188     H      0.821590000000     0.907240000000     0.042200000000     0.0488812  
H189     H      0.827400000000     0.843020000000     0.128760000000     0.039177   
H190     H      0.377080000000     0.281870000000     0.092220000000     0.0916817  
H191     H      0.330840000000     0.352300000000     0.128800000000     0.0839108  
H192     H      0.322190000000     0.420080000000     0.044500000000     0.0510691  
H193     H      0.321100000000     0.207050000000     0.057140000000     0.097192   
H194     H      0.306320000000     0.274940000000     0.975100000000     0.0149404  
H195     H      0.244920000000     0.327070000000     0.114510000000     0.0723956  
H196     H      0.266480000000     0.346240000000     0.007620000000     0.0447604  
H197     H      0.801170000000     0.152700000000     0.166720000000     0.0937147  
H198     H      0.827320000000     0.057120000000     0.051810000000     0.0829082  
H199     H      0.860840000000     0.988630000000     0.114810000000     0.0500174  
H200     H      0.786580000000     0.078790000000     0.204770000000     0.0572628  
H201     H      0.906390000000     0.149550000000     0.213450000000    -0.00178694 
H202     H      0.757120000000     0.980860000000     0.077540000000     0.0497011  
H203     H      0.817380000000     0.994090000000     0.172590000000     0.0358806  
H204     H      0.282410000000     0.022060000000     0.011700000000     0.0904703  
H205     H      0.370500000000     0.174630000000     0.994060000000     0.0787293  
H206     H      0.451950000000     0.185030000000     0.929370000000     0.0694616  
H207     H      0.224170000000     0.990060000000     0.950530000000     0.0854277  
H208     H      0.313190000000     0.021390000000     0.886390000000     0.00283143 
H209     H      0.344640000000     0.194380000000     0.924790000000     0.0858754  
H210     H      0.388740000000     0.138870000000     0.875670000000     0.0533732  
H211     H      0.034590000000     0.715450000000     0.130390000000     0.061323   
H212     H      0.158050000000     0.866310000000     0.030530000000     0.0638061  
H213     H      0.213430000000     0.948990000000     0.107100000000     0.056627   
H214     H      0.107900000000     0.766920000000     0.174010000000     0.0477901  
H215     H      0.034450000000     0.810790000000     0.179560000000     0.00023768 
H216     H      0.224880000000     0.859090000000     0.066770000000     0.0560317  
H217     H      0.197730000000     0.885620000000     0.159120000000     0.0417295  
H218     H      0.074890000000     0.268270000000     0.109910000000     0.118783   
H219     H      0.185530000000     0.348540000000     0.054530000000     0.0484571  
H220     H      0.161900000000     0.306440000000     0.958020000000     0.0656627  
H221     H      0.012120000000     0.292090000000     0.109080000000     0.131699   
H222     H      0.996240000000     0.275780000000     0.999930000000    -0.00117317 
H223     H      0.184350000000     0.411390000000     0.010330000000     0.050858   
H224     H      0.098880000000     0.329060000000     0.944800000000     0.0613488  
N1       N      0.527600000000     0.489600000000     0.866350000000    -0.200643   
N2       N      0.515650000000     0.499620000000     0.745940000000    -0.159456   
N3       N      0.532290000000     0.542490000000     0.349720000000    -0.21366    
N4       N      0.611220000000     0.556120000000     0.259720000000    -0.169398   
N5       N      0.551100000000     0.875540000000     0.494420000000    -0.199739   
N6       N      0.573630000000     0.766360000000     0.515460000000    -0.149721   
N7       N      0.584740000000     0.261380000000     0.634850000000    -0.207039   
N8       N      0.548450000000     0.359610000000     0.620040000000    -0.160806   
N9       N      0.563510000000     0.070340000000     0.860320000000    -0.203053   
N10      N      0.630510000000     0.082160000000     0.761660000000    -0.169762   
N11      N      0.537480000000     0.089250000000     0.252420000000    -0.202559   
N12      N      0.545980000000     0.054980000000     0.366950000000    -0.164871   
N13      N      0.561470000000     0.849840000000     0.042160000000    -0.201251   
N14      N      0.579130000000     0.740970000000     0.021470000000    -0.173973   
N15      N      0.526920000000     0.224150000000     0.135360000000    -0.196005   
N16      N      0.528590000000     0.338550000000     0.168460000000    -0.162157   
N17      N      0.874590000000     0.358920000000     0.494030000000    -0.202604   
N18      N      0.754380000000     0.249060000000     0.458870000000    -0.174301   
N19      N      0.398190000000     0.847500000000     0.656590000000    -0.180617   
N20      N      0.266570000000     0.734720000000     0.646170000000    -0.155215   
N21      N      0.875860000000     0.567810000000     0.554540000000    -0.195048   
N22      N      0.750630000000     0.546980000000     0.502410000000    -0.16368    
N23      N      0.273620000000     0.588830000000     0.548030000000    -0.210224   
N24      N      0.405330000000     0.607550000000     0.565730000000    -0.152104   
N25      N      0.087380000000     0.585630000000     0.886440000000    -0.196788   
N26      N      0.055070000000     0.571670000000     0.767360000000    -0.163282   
N27      N      0.019520000000     0.503700000000     0.389670000000    -0.197153   
N28      N      0.026060000000     0.514640000000     0.269920000000    -0.160325   
N29      N      0.765550000000     0.218650000000     0.986490000000    -0.206457   
N30      N      0.886110000000     0.334900000000     0.019000000000    -0.129403   
N31      N      0.270600000000     0.739750000000     0.186540000000    -0.202875   
N32      N      0.386280000000     0.855520000000     0.149080000000    -0.161077   
N33      N      0.762050000000     0.518290000000     0.991240000000    -0.212768   
N34      N      0.870050000000     0.529610000000     0.063360000000    -0.168407   
N35      N      0.380240000000     0.540700000000     0.126400000000    -0.193666   
N36      N      0.275260000000     0.563880000000     0.085360000000    -0.158325   
N37      N      0.875930000000     0.844900000000     0.590880000000    -0.208302   
N38      N      0.787090000000     0.709690000000     0.595490000000    -0.175151   
N39      N      0.257360000000     0.210200000000     0.467200000000    -0.20248    
N40      N      0.384880000000     0.327100000000     0.473960000000    -0.14355    
N41      N      0.860570000000     0.061110000000     0.533180000000    -0.206985   
N42      N      0.756610000000     0.023140000000     0.609530000000    -0.162922   
N43      N      0.268430000000     0.078430000000     0.625700000000    -0.206234   
N44      N      0.374390000000     0.068890000000     0.581640000000    -0.173641   
N45      N      0.082940000000     0.780170000000     0.544660000000    -0.186531   
N46      N      0.007190000000     0.843200000000     0.530340000000    -0.155136   
N47      N      0.044890000000     0.228730000000     0.650130000000    -0.20817    
N48      N      0.032760000000     0.341860000000     0.646720000000    -0.168995   
N49      N      0.036420000000     0.056220000000     0.864610000000    -0.211582   
N50      N      0.110020000000     0.078780000000     0.768580000000    -0.163961   
N51      N      0.139600000000     0.084690000000     0.258380000000    -0.209841   
N52      N      0.110620000000     0.064020000000     0.374330000000    -0.159917   
N53      N      0.786920000000     0.752300000000     0.085580000000    -0.2104     
N54      N      0.877290000000     0.860120000000     0.021150000000    -0.164117   
N55      N      0.366160000000     0.365170000000     0.016790000000    -0.203576   
N56      N      0.275950000000     0.260810000000     0.088140000000    -0.14983    
N57      N      0.903110000000     0.086210000000     0.150520000000    -0.180588   
N58      N      0.772740000000     0.069160000000     0.114850000000    -0.154244   
N59      N      0.393540000000     0.079950000000     0.945100000000    -0.201745   
N60      N      0.281590000000     0.096230000000     0.956090000000    -0.148601   
N61      N      0.108420000000     0.883170000000     0.125820000000    -0.207563   
N62      N      0.124530000000     0.782330000000     0.085160000000    -0.169543   
N63      N      0.068810000000     0.245500000000     0.999570000000    -0.191578   
N64      N      0.100840000000     0.356060000000     0.064950000000    -0.142823   
O1       O      0.034310000000     0.141670000000     0.034800000000    -0.401371   
O2       O      0.993210000000     0.914450000000     0.023850000000    -0.404309   
O3       O      0.100580000000     0.102770000000     0.944980000000    -0.435074   
O4       O      0.975940000000     0.049350000000     0.137040000000    -0.50548    
O5       O      0.041680000000     0.997970000000     0.943550000000    -0.471905   
O6       O      0.020370000000     0.157310000000     0.143420000000    -0.343043   
O7       O      0.943550000000     0.958660000000     0.063560000000    -0.451925   
O8       O      0.135800000000     0.197130000000     0.002640000000    -0.374594   
O9       O      0.104910000000     0.117650000000     0.176600000000    -0.417221   
O10      O      0.174290000000     0.049850000000     0.986270000000    -0.500844   
O11      O      0.207020000000     0.150030000000     0.080250000000    -0.435508   
O12      O      0.034390000000     0.921840000000     0.119870000000    -0.403314   
O13      O      0.127340000000     0.974080000000     0.075090000000    -0.464077   
O14      O      0.160140000000     0.206160000000     0.103100000000    -0.361747   
O15      O      0.071180000000     0.015370000000     0.187430000000    -0.466709   
O16      O      0.229100000000     0.157630000000     0.970340000000    -0.393711   
O17      O      0.078990000000     0.059210000000     0.062480000000    -0.596161   
O18      O      0.113290000000     0.020590000000     0.463380000000    -0.428962   
O19      O      0.015020000000     0.119820000000     0.654810000000    -0.446479   
O20      O      0.959090000000     0.070690000000     0.506600000000    -0.411566   
O21      O      0.168370000000     0.182290000000     0.524180000000    -0.378642   
O22      O      0.922560000000     0.031130000000     0.591750000000    -0.46133    
O23      O      0.205950000000     0.114030000000     0.520620000000    -0.437552   
O24      O      0.078250000000     0.182010000000     0.587120000000    -0.409128   
O25      O      0.056820000000     0.071950000000     0.449250000000    -0.420001   
O26      O      0.155740000000     0.033760000000     0.623830000000    -0.449454   
O27      O      0.963110000000     0.941370000000     0.625790000000    -0.457907   
O28      O      0.007670000000     0.934510000000     0.487570000000    -0.376183   
O29      O      0.125220000000     0.136190000000     0.683170000000    -0.411572   
O30      O      0.060220000000     0.029550000000     0.685010000000    -0.451743   
O31      O      0.066350000000     0.945060000000     0.566400000000    -0.463187   
O32      O      0.215100000000     0.138110000000     0.619380000000    -0.405456   
O33      O      0.918890000000     0.942380000000     0.541380000000    -0.392717   
O34      O      0.063840000000     0.058070000000     0.568730000000    -0.534027   
O35      O      0.976240000000     0.443650000000     0.015010000000    -0.381556   
O36      O      0.074310000000     0.677230000000     0.057420000000    -0.485225   
O37      O      0.941530000000     0.490670000000     0.089180000000    -0.388903   
O38      O      0.139870000000     0.643320000000     0.968220000000    -0.395493   
O39      O      0.976650000000     0.593370000000     0.099610000000    -0.490369   
O40      O      0.096210000000     0.535760000000     0.969780000000    -0.395134   
O41      O      0.178270000000     0.733660000000     0.051410000000    -0.425683   
O42      O      0.951170000000     0.387350000000     0.097740000000    -0.343441   
O43      O      0.164670000000     0.528370000000     0.076650000000    -0.424346   
O44      O      0.046310000000     0.580650000000     0.191060000000    -0.471676   
O45      O      0.073740000000     0.426970000000     0.106470000000    -0.364328   
O46      O      0.233990000000     0.670070000000     0.111700000000    -0.429187   
O47      O      0.159390000000     0.683160000000     0.154350000000    -0.454263   
O48      O      0.079520000000     0.427650000000     0.013890000000    -0.379905   
O49      O      0.224640000000     0.603080000000     0.019180000000    -0.424547   
O50      O      0.020080000000     0.477390000000     0.179590000000    -0.363122   
O51      O      0.087080000000     0.573170000000     0.079780000000    -0.520884   
O52      O      0.983680000000     0.408710000000     0.531380000000    -0.458284   
O53      O      0.098080000000     0.711710000000     0.608940000000    -0.423759   
O54      O      0.930840000000     0.535210000000     0.621330000000    -0.456495   
O55      O      0.061680000000     0.579600000000     0.460450000000    -0.3574     
O56      O      0.990570000000     0.607600000000     0.559400000000    -0.364154   
O57      O      0.077920000000     0.495270000000     0.470370000000    -0.431837   
O58      O      0.091380000000     0.690920000000     0.517970000000    -0.341209   
O59      O      0.919060000000     0.447690000000     0.551020000000    -0.440516   
O60      O      0.165800000000     0.528570000000     0.571540000000    -0.493097   
O61      O      0.043040000000     0.608520000000     0.676860000000    -0.39422    
O62      O      0.973380000000     0.396700000000     0.634330000000    -0.427453   
O63      O      0.203120000000     0.689610000000     0.565200000000    -0.412419   
O64      O      0.160060000000     0.644900000000     0.643790000000    -0.404807   
O65      O      0.079220000000     0.451220000000     0.628920000000    -0.457596   
O66      O      0.186000000000     0.594110000000     0.499140000000    -0.397433   
O67      O      0.008280000000     0.503840000000     0.691670000000    -0.465201   
O68      O      0.059510000000     0.544610000000     0.578520000000    -0.568767   
O69      O      0.428740000000     0.025440000000     0.009720000000    -0.394649   
O70      O      0.544500000000     0.935260000000     0.015190000000    -0.411955   
O71      O      0.585380000000     0.127300000000     0.943440000000    -0.394371   
O72      O      0.495400000000     0.941240000000     0.154780000000    -0.427791   
O73      O      0.542160000000     0.021410000000     0.947940000000    -0.440388   
O74      O      0.428980000000     0.939690000000     0.083780000000    -0.428648   
O75      O      0.587400000000     0.936970000000     0.100300000000    -0.427981   
O76      O      0.493840000000     0.131130000000     0.997690000000    -0.441986   
O77      O      0.476550000000     0.033450000000     0.171160000000    -0.386176   
O78      O      0.678260000000     0.112560000000     0.980720000000    -0.444713   
O79      O      0.582560000000     0.179320000000     0.095510000000    -0.435536   
O80      O      0.678310000000     0.075770000000     0.125550000000    -0.430785   
O81      O      0.680220000000     0.026190000000     0.051280000000    -0.419736   
O82      O      0.473780000000     0.119170000000     0.098330000000    -0.39195    
O83      O      0.585360000000     0.076570000000     0.176530000000    -0.459953   
O84      O      0.673640000000     0.178620000000     0.039640000000    -0.428966   
O85      O      0.557890000000     0.052760000000     0.061790000000    -0.51588    
O86      O      0.436940000000     0.022470000000     0.567650000000    -0.448718   
O87      O      0.617330000000     0.986630000000     0.505820000000    -0.450896   
O88      O      0.519450000000     0.074960000000     0.452990000000    -0.443065   
O89      O      0.514520000000     0.898510000000     0.646290000000    -0.35399    
O90      O      0.616520000000     0.079290000000     0.446520000000    -0.443885   
O91      O      0.467170000000     0.959580000000     0.642500000000    -0.49315    
O92      O      0.517480000000     0.937730000000     0.539430000000    -0.425513   
O93      O      0.469750000000     0.116770000000     0.532120000000    -0.450314   
O94      O      0.561810000000     0.084840000000     0.689960000000    -0.468558   
O95      O      0.708190000000     0.170780000000     0.528800000000    -0.457566   
O96      O      0.597400000000     0.205530000000     0.564390000000    -0.421881   
O97      O      0.640150000000     0.974580000000     0.605020000000    -0.379027   
O98      O      0.701780000000     0.079510000000     0.591620000000    -0.443227   
O99      O      0.525370000000     0.147770000000     0.628730000000    -0.425148   
O100     O      0.600970000000     0.020410000000     0.681430000000    -0.427301   
O101     O      0.641940000000     0.189420000000     0.472800000000    -0.445303   
O102     O      0.579540000000     0.072600000000     0.567790000000    -0.519048   
O103     O      0.479930000000     0.404860000000     0.024470000000    -0.424112   
O104     O      0.540210000000     0.632860000000     0.039060000000    -0.467196   
O105     O      0.420610000000     0.469250000000     0.150720000000    -0.366622   
O106     O      0.571460000000     0.563010000000     0.938890000000    -0.411269   
O107     O      0.490080000000     0.569710000000     0.123770000000    -0.55136    
O108     O      0.572240000000     0.470310000000     0.950600000000    -0.429843   
O109     O      0.625680000000     0.682340000000     0.990490000000    -0.412796   
O110     O      0.443780000000     0.470490000000     0.042390000000    -0.437624   
O111     O      0.668500000000     0.487040000000     0.039650000000    -0.477709   
O112     O      0.615700000000     0.610270000000     0.175500000000    -0.462308   
O113     O      0.480050000000     0.398000000000     0.127560000000    -0.380783   
O114     O      0.722170000000     0.654770000000     0.040240000000    -0.414      
O115     O      0.672390000000     0.689810000000     0.092270000000    -0.451867   
O116     O      0.582430000000     0.428300000000     0.109980000000    -0.444559   
O117     O      0.691560000000     0.560590000000     0.972570000000    -0.404059   
O118     O      0.549370000000     0.505000000000     0.179780000000    -0.449163   
O119     O      0.586120000000     0.542010000000     0.061740000000    -0.519029   
O120     O      0.501880000000     0.388740000000     0.495670000000    -0.383997   
O121     O      0.597270000000     0.701900000000     0.579070000000    -0.416342   
O122     O      0.438610000000     0.535960000000     0.545950000000    -0.41647    
O123     O      0.591360000000     0.600930000000     0.426800000000    -0.511556   
O124     O      0.491660000000     0.603390000000     0.616820000000    -0.413392   
O125     O      0.526480000000     0.496750000000     0.439020000000    -0.440362   
O126     O      0.585800000000     0.681760000000     0.487720000000    -0.446588   
O127     O      0.438610000000     0.434040000000     0.503660000000    -0.438926   
O128     O      0.635320000000     0.497140000000     0.498490000000    -0.424111   
O129     O      0.575670000000     0.548940000000     0.667630000000    -0.430002   
O130     O      0.481230000000     0.406020000000     0.608730000000    -0.410134   
O131     O      0.693860000000     0.694990000000     0.545760000000    -0.517346   
O132     O      0.679930000000     0.647290000000     0.628090000000    -0.441049   
O133     O      0.582100000000     0.462680000000     0.586760000000    -0.442866   
O134     O      0.695530000000     0.604830000000     0.488520000000    -0.477033   
O135     O      0.467850000000     0.500310000000     0.656780000000    -0.385715   
O136     O      0.570100000000     0.563390000000     0.548910000000    -0.547491   


