data_structure

_audit_creation_method RASPA-1.0
_audit_creation_date 2023-6-4
_audit_author_name 'Poobodin Mano'

_cell_length_a    39.3721
_cell_length_b    39.5003
_cell_length_c    40.7789
_cell_angle_alpha 87.1353
_cell_angle_beta  93.8193
_cell_angle_gamma 120.433
_cell_volume      54550.7

_symmetry_cell_setting          triclinic
_symmetry_space_group_name_Hall 'P 1'
_symmetry_space_group_name_H-M  'P 1'
_symmetry_Int_Tables_number     1

_symmetry_equiv_pos_as_xyz 'x,y,z'

loop_
_atom_site_label
_atom_site_type_symbol
_atom_site_fract_x
_atom_site_fract_y
_atom_site_fract_z
_atom_site_charge
C1       C      0.038550000000     0.152720000000     0.021350000000     0.467771   
C2       C      0.997760000000     0.988830000000     0.031380000000     0.463416   
C3       C      0.050690000000     0.042820000000     0.974310000000     0.450076   
C4       C      0.989800000000     0.097490000000     0.081210000000     0.45807    
C5       C      0.061730000000     0.085540000000     0.132600000000     0.468774   
C6       C      0.144570000000     0.105300000000     0.014190000000     0.459914   
C7       C      0.136940000000     0.175450000000     0.038080000000     0.475248   
C8       C      0.062230000000     0.012900000000     0.100710000000     0.454547   
C9       C      0.035480000000     0.997860000000     0.468900000000     0.507707   
C10      C      0.015410000000     0.048870000000     0.581770000000     0.449446   
C11      C      0.937640000000     0.969040000000     0.547230000000     0.496865   
C12      C      0.117190000000     0.042980000000     0.519070000000     0.452531   
C13      C      0.098570000000     0.972740000000     0.583350000000     0.450234   
C14      C      0.954190000000     0.887290000000     0.567230000000     0.473661   
C15      C      0.040980000000     0.912320000000     0.495890000000     0.398679   
C16      C      0.054720000000     0.999080000000     0.634160000000     0.48871    
C17      C      0.962780000000     0.526500000000     0.007020000000     0.453959   
C18      C      0.074200000000     0.688570000000     0.009730000000     0.45947    
C19      C      0.962520000000     0.574300000000     0.062910000000     0.462512   
C20      C      0.084610000000     0.630500000000     0.957240000000     0.438933   
C21      C      0.118780000000     0.577280000000     0.012990000000     0.466247   
C22      C      0.048050000000     0.594520000000     0.118040000000     0.455747   
C23      C      0.039910000000     0.504610000000     0.029960000000     0.467493   
C24      C      0.119970000000     0.677520000000     0.081060000000     0.465499   
C25      C      0.934660000000     0.409310000000     0.534580000000     0.456889   
C26      C      0.045200000000     0.576780000000     0.500080000000     0.458432   
C27      C      0.940080000000     0.477490000000     0.568240000000     0.468189   
C28      C      0.039530000000     0.509780000000     0.461220000000     0.452657   
C29      C      0.087050000000     0.467160000000     0.517340000000     0.460796   
C30      C      0.030540000000     0.518860000000     0.623330000000     0.457374   
C31      C      0.021080000000     0.405750000000     0.560760000000     0.470548   
C32      C      0.097030000000     0.578250000000     0.577370000000     0.458195   
C33      C      0.490840000000     0.119020000000     0.019430000000     0.442135   
C34      C      0.588000000000     0.031830000000     0.017020000000     0.486429   
C35      C      0.572720000000     0.087860000000     0.951970000000     0.468979   
C36      C      0.478610000000     0.037090000000     0.054180000000     0.472415   
C37      C      0.549250000000     0.056290000000     0.114030000000     0.3779     
C38      C      0.633430000000     0.187520000000     0.984920000000     0.481974   
C39      C      0.586760000000     0.189420000000     0.045520000000     0.440154   
C40      C      0.643090000000     0.107800000000     0.075920000000     0.485546   
C41      C      0.426700000000     0.948810000000     0.537640000000     0.470853   
C42      C      0.525420000000     0.904390000000     0.508380000000     0.532056   
C43      C      0.494390000000     0.005720000000     0.455940000000     0.398819   
C44      C      0.466880000000     0.905660000000     0.600490000000     0.487626   
C45      C      0.555840000000     0.994610000000     0.627180000000     0.502132   
C46      C      0.574330000000     0.062920000000     0.504080000000     0.492786   
C47      C      0.490000000000     0.049870000000     0.556960000000     0.456979   
C48      C      0.610020000000     0.989620000000     0.541320000000     0.500569   
C49      C      0.458740000000     0.535930000000     0.028030000000     0.469914   
C50      C      0.553700000000     0.683170000000     0.997200000000     0.511231   
C51      C      0.476270000000     0.607200000000     0.076820000000     0.485314   
C52      C      0.538470000000     0.561160000000     0.953850000000     0.434558   
C53      C      0.616770000000     0.587840000000     0.017190000000     0.485591   
C54      C      0.562720000000     0.618950000000     0.127290000000     0.510719   
C55      C      0.531760000000     0.508090000000     0.056480000000     0.452966   
C56      C      0.634930000000     0.687420000000     0.050310000000     0.485797   
C57      C      0.449760000000     0.399950000000     0.514030000000     0.4909     
C58      C      0.562360000000     0.588340000000     0.506540000000     0.442979   
C59      C      0.433760000000     0.474260000000     0.539240000000     0.47757    
C60      C      0.545590000000     0.519250000000     0.457130000000     0.510869   
C61      C      0.621390000000     0.512090000000     0.507250000000     0.393495   
C62      C      0.500830000000     0.506140000000     0.612430000000     0.479622   
C63      C      0.538530000000     0.420700000000     0.559490000000     0.488086   
C64      C      0.588570000000     0.559870000000     0.583300000000     0.447446   
C65      C      0.485270000000     0.537850000000     0.691170000000    -0.0781919  
C66      C      0.509480000000     0.521870000000     0.906480000000     0.0847789  
C67      C      0.559230000000     0.588790000000     0.900910000000     0.0893303  
C68      C      0.504850000000     0.518230000000     0.872400000000    -0.0941748  
C69      C      0.557130000000     0.563380000000     0.797340000000    -0.0323142  
C70      C      0.553190000000     0.559270000000     0.763340000000    -0.0341238  
C71      C      0.523560000000     0.547510000000     0.816080000000    -0.00541184 
C72      C      0.555540000000     0.586150000000     0.866830000000    -0.0904841  
C73      C      0.515630000000     0.539390000000     0.747440000000    -0.00296336 
C74      C      0.533340000000     0.517470000000     0.698790000000    -0.0915726  
C75      C      0.482020000000     0.524420000000     0.766030000000    -0.0340852  
C76      C      0.528540000000     0.509000000000     0.665670000000     0.0725076  
C77      C      0.480710000000     0.529080000000     0.657620000000     0.0536832  
C78      C      0.485960000000     0.528310000000     0.800120000000    -0.0308946  
C79      C      0.527880000000     0.550690000000     0.852230000000     0.0571826  
C80      C      0.511630000000     0.532010000000     0.711870000000     0.0479347  
C81      C      0.565860000000     0.644080000000     0.213830000000    -0.0816839  
C82      C      0.517970000000     0.519160000000     0.403520000000     0.0920217  
C83      C      0.579660000000     0.573370000000     0.420970000000     0.088605   
C84      C      0.521420000000     0.536060000000     0.372200000000    -0.0912037  
C85      C      0.597820000000     0.598240000000     0.317120000000    -0.0312824  
C86      C      0.603080000000     0.609530000000     0.284100000000    -0.0324092  
C87      C      0.562040000000     0.587510000000     0.331210000000    -0.00534881 
C88      C      0.584140000000     0.590930000000     0.389990000000    -0.0958586  
C89      C      0.572800000000     0.610650000000     0.264870000000    -0.00380857 
C90      C      0.586700000000     0.596890000000     0.210230000000    -0.0915032  
C91      C      0.537600000000     0.601390000000     0.279290000000    -0.0323809  
C92      C      0.583580000000     0.599480000000     0.176220000000     0.0835848  
C93      C      0.563460000000     0.646920000000     0.179490000000     0.0652652  
C94      C      0.532170000000     0.589670000000     0.312220000000    -0.0318245  
C95      C      0.555300000000     0.571800000000     0.365090000000     0.0584348  
C96      C      0.576260000000     0.618170000000     0.229230000000     0.053556   
C97      C      0.538400000000     0.839920000000     0.453320000000    -0.0742681  
C98      C      0.606610000000     0.655550000000     0.492220000000     0.0754519  
C99      C      0.539170000000     0.624660000000     0.474580000000     0.076516   
C100     C      0.612260000000     0.691910000000     0.480310000000    -0.0911182  
C101     C      0.605020000000     0.764060000000     0.483770000000    -0.0310324  
C102     C      0.598210000000     0.795210000000     0.486090000000    -0.031651   
C103     C      0.581840000000     0.733480000000     0.461830000000    -0.00312607 
C104     C      0.543590000000     0.660160000000     0.462770000000    -0.0888374  
C105     C      0.567390000000     0.796080000000     0.467210000000    -0.000707699
C106     C      0.552460000000     0.829020000000     0.509600000000    -0.0918276  
C107     C      0.547550000000     0.768280000000     0.442470000000    -0.0312822  
C108     C      0.540840000000     0.854670000000     0.518910000000     0.0984467  
C109     C      0.525550000000     0.865180000000     0.463360000000     0.0749496  
C110     C      0.555150000000     0.737610000000     0.439490000000    -0.0307343  
C111     C      0.580000000000     0.694870000000     0.466750000000     0.0518679  
C112     C      0.553100000000     0.822560000000     0.476480000000     0.0573231  
C113     C      0.465190000000     0.128240000000     0.558480000000    -0.0768999  
C114     C      0.562140000000     0.378920000000     0.547330000000     0.0819123  
C115     C      0.536220000000     0.373580000000     0.599410000000     0.0795438  
C116     C      0.559310000000     0.342590000000     0.551940000000    -0.0948717  
C117     C      0.536260000000     0.259020000000     0.607070000000    -0.0334322  
C118     C      0.525760000000     0.219580000000     0.605470000000    -0.0355702  
C119     C      0.528190000000     0.277470000000     0.579930000000    -0.00714677 
C120     C      0.532370000000     0.336490000000     0.604740000000    -0.096103   
C121     C      0.506660000000     0.198040000000     0.576850000000    -0.00288887 
C122     C      0.530350000000     0.150510000000     0.582470000000    -0.0885582  
C123     C      0.496900000000     0.216130000000     0.550450000000    -0.0347332  
C124     C      0.525610000000     0.114080000000     0.576680000000     0.0758131  
C125     C      0.460740000000     0.091250000000     0.553290000000     0.0568685  
C126     C      0.507570000000     0.255420000000     0.551970000000    -0.032549   
C127     C      0.541480000000     0.319760000000     0.579700000000     0.0539735  
C128     C      0.500160000000     0.158090000000     0.573180000000     0.0469506  
C129     C      0.589590000000     0.045280000000     0.705930000000    -0.0793178  
C130     C      0.601970000000     0.066250000000     0.915610000000     0.0807476  
C131     C      0.537530000000     0.055240000000     0.902680000000     0.0789775  
C132     C      0.602570000000     0.051730000000     0.885480000000    -0.097528   
C133     C      0.608040000000     0.055630000000     0.812090000000    -0.0323821  
C134     C      0.610450000000     0.049100000000     0.779310000000    -0.0355376  
C135     C      0.573740000000     0.030740000000     0.828990000000    -0.00726594 
C136     C      0.537200000000     0.040580000000     0.872080000000    -0.0951122  
C137     C      0.578700000000     0.017420000000     0.762880000000    -0.00351106 
C138     C      0.567840000000     0.976750000000     0.714190000000    -0.0919221  
C139     C      0.544900000000     0.991700000000     0.780030000000    -0.0355154  
C140     C      0.563770000000     0.972430000000     0.680260000000     0.077075   
C141     C      0.585280000000     0.040260000000     0.671880000000     0.0570526  
C142     C      0.542320000000     0.998450000000     0.812820000000    -0.0335355  
C143     C      0.570580000000     0.040010000000     0.862890000000     0.0543652  
C144     C      0.579370000000     0.013130000000     0.727250000000     0.0488613  
C145     C      0.515100000000     0.004320000000     0.193800000000    -0.0745867  
C146     C      0.477890000000     0.027590000000     0.404640000000     0.0785521  
C147     C      0.521110000000     0.002180000000     0.407290000000     0.0834435  
C148     C      0.480030000000     0.031480000000     0.370290000000    -0.089651   
C149     C      0.507720000000     0.054540000000     0.299640000000    -0.0314703  
C150     C      0.514310000000     0.058530000000     0.265990000000    -0.0333475  
C151     C      0.505840000000     0.022580000000     0.317910000000    -0.00323038 
C152     C      0.524370000000     0.006100000000     0.373490000000    -0.0916628  
C153     C      0.519540000000     0.030850000000     0.249880000000    -3.43488e-05
C154     C      0.553380000000     0.073830000000     0.201490000000    -0.0842881  
C155     C      0.516350000000     0.998260000000     0.268030000000    -0.0330386  
C156     C      0.560980000000     0.078870000000     0.168250000000     0.0707698  
C157     C      0.524060000000     0.009820000000     0.160430000000     0.0539243  
C158     C      0.509190000000     0.994000000000     0.301440000000    -0.0313161  
C159     C      0.503020000000     0.019940000000     0.354270000000     0.0538902  
C160     C      0.529180000000     0.036370000000     0.214560000000     0.0468831  
C161     C      0.560340000000     0.759770000000     0.936180000000    -0.0772863  
C162     C      0.554750000000     0.963970000000     0.004750000000     0.0827221  
C163     C      0.618330000000     0.006290000000     0.984850000000     0.0789344  
C164     C      0.552340000000     0.932170000000     0.989180000000    -0.0924433  
C165     C      0.614910000000     0.897050000000     0.961530000000    -0.0319297  
C166     C      0.610630000000     0.860210000000     0.957010000000    -0.034016   
C167     C      0.582140000000     0.902290000000     0.957100000000    -0.00591575 
C168     C      0.616910000000     0.974890000000     0.968940000000    -0.0949308  
C169     C      0.573650000000     0.828060000000     0.947870000000    -0.00324628 
C170     C      0.562360000000     0.779320000000     0.991320000000    -0.0919583  
C171     C      0.542080000000     0.834300000000     0.939710000000    -0.0330726  
C172     C      0.556690000000     0.743440000000     0.002710000000     0.0925137  
C173     C      0.554360000000     0.722950000000     0.948310000000     0.0575893  
C174     C      0.546330000000     0.871200000000     0.944140000000    -0.0320021  
C175     C      0.583540000000     0.937220000000     0.970950000000     0.0538522  
C176     C      0.565320000000     0.788310000000     0.958020000000     0.0519237  
C177     C      0.609360000000     0.279050000000     0.088490000000    -0.0759059  
C178     C      0.525170000000     0.448980000000     0.037640000000     0.0766822  
C179     C      0.564040000000     0.478000000000     0.086190000000     0.0750576  
C180     C      0.534660000000     0.419350000000     0.040250000000    -0.0940112  
C181     C      0.540690000000     0.348550000000     0.061490000000    -0.0337112  
C182     C      0.550530000000     0.319330000000     0.060890000000    -0.0348233  
C183     C      0.569610000000     0.387330000000     0.069180000000    -0.00654565 
C184     C      0.574230000000     0.448780000000     0.089500000000    -0.0930968  
C185     C      0.589390000000     0.328010000000     0.068320000000    -0.00370657 
C186     C      0.595500000000     0.284540000000     0.030920000000    -0.0934083  
C187     C      0.618120000000     0.366160000000     0.077590000000    -0.0352932  
C188     C      0.596020000000     0.250380000000     0.025840000000     0.074362   
C189     C      0.610400000000     0.244650000000     0.082640000000     0.0514417  
C190     C      0.608310000000     0.395690000000     0.077980000000    -0.0333426  
C191     C      0.559460000000     0.418920000000     0.066390000000     0.0503934  
C192     C      0.599630000000     0.297710000000     0.062680000000     0.0461522  
C193     C      0.834870000000     0.323860000000     0.547670000000    -0.0790337  
C194     C      0.599970000000     0.131160000000     0.512550000000     0.0841921  
C195     C      0.641050000000     0.109430000000     0.493220000000     0.0804577  
C196     C      0.631260000000     0.170050000000     0.512440000000    -0.0911095  
C197     C      0.729860000000     0.234290000000     0.478720000000    -0.032395   
C198     C      0.765220000000     0.270100000000     0.482310000000    -0.0332183  
C199     C      0.702740000000     0.219460000000     0.503790000000    -0.00435328 
C200     C      0.672770000000     0.147910000000     0.492520000000    -0.0895458  
C201     C      0.774300000000     0.291630000000     0.511170000000    -0.00319231 
C202     C      0.835530000000     0.354100000000     0.495170000000    -0.0868166  
C203     C      0.746090000000     0.278080000000     0.535280000000    -0.0338076  
C204     C      0.875150000000     0.382150000000     0.501740000000     0.0716737  
C205     C      0.874940000000     0.351350000000     0.553590000000     0.0570089  
C206     C      0.710620000000     0.242440000000     0.531590000000    -0.0316771  
C207     C      0.668250000000     0.178820000000     0.502370000000     0.0545179  
C208     C      0.815030000000     0.324490000000     0.518280000000     0.0477185  
C209     C      0.389260000000     0.802650000000     0.610680000000    -0.0772228  
C210     C      0.130640000000     0.644120000000     0.596660000000     0.0756436  
C211     C      0.161500000000     0.605710000000     0.602130000000     0.075689   
C212     C      0.166100000000     0.677630000000     0.606490000000    -0.0947971  
C213     C      0.251770000000     0.736570000000     0.641330000000    -0.0334976  
C214     C      0.290610000000     0.768420000000     0.643780000000    -0.0346435  
C215     C      0.239640000000     0.710570000000     0.615120000000    -0.00705755 
C216     C      0.197160000000     0.638390000000     0.611830000000    -0.0952053  
C217     C      0.317600000000     0.774800000000     0.619830000000    -0.00258228 
C218     C      0.369650000000     0.844680000000     0.633220000000    -0.0909381  
C219     C      0.304430000000     0.749360000000     0.593020000000    -0.034105   
C220     C      0.407860000000     0.876340000000     0.629310000000     0.074787   
C221     C      0.427170000000     0.834840000000     0.606730000000     0.0675671  
C222     C      0.266150000000     0.717540000000     0.590880000000    -0.0320644  
C223     C      0.200120000000     0.675070000000     0.612740000000     0.0525266  
C224     C      0.359320000000     0.807710000000     0.621850000000     0.0491187  
C225     C      0.665670000000     0.451370000000     0.500200000000    -0.0741314  
C226     C      0.884850000000     0.466700000000     0.534360000000     0.0793283  
C227     C      0.875200000000     0.440970000000     0.588910000000     0.0783319  
C228     C      0.845130000000     0.453940000000     0.529330000000    -0.0941099  
C229     C      0.767570000000     0.446750000000     0.574920000000    -0.03292    
C230     C      0.738200000000     0.456080000000     0.566780000000    -0.0359174  
C231     C      0.779910000000     0.431320000000     0.551160000000    -0.00736658 
C232     C      0.834830000000     0.428430000000     0.584940000000    -0.0948341  
C233     C      0.721030000000     0.450640000000     0.534630000000    -0.0018127  
C234     C      0.706710000000     0.505510000000     0.535750000000    -0.0877028  
C235     C      0.730130000000     0.430830000000     0.512200000000    -0.0356837  
C236     C      0.683230000000     0.521800000000     0.526810000000     0.0727405  
C237     C      0.643380000000     0.469160000000     0.490720000000     0.0515307  
C238     C      0.758900000000     0.420800000000     0.520570000000    -0.0325249  
C239     C      0.819680000000     0.435780000000     0.554980000000     0.0531383  
C240     C      0.696860000000     0.468810000000     0.523860000000     0.0446704  
C241     C      0.340210000000     0.462780000000     0.501540000000    -0.0755834  
C242     C      0.139850000000     0.461400000000     0.542410000000     0.077616   
C243     C      0.107390000000     0.426230000000     0.493870000000     0.075074   
C244     C      0.166530000000     0.448190000000     0.542830000000    -0.0941125  
C245     C      0.212710000000     0.406950000000     0.545430000000    -0.0330761  
C246     C      0.249180000000     0.408980000000     0.545870000000    -0.0337544  
C247     C      0.196710000000     0.415140000000     0.516330000000    -0.00633549 
C248     C      0.134210000000     0.412770000000     0.493290000000    -0.0937316  
C249     C      0.270340000000     0.418880000000     0.517110000000    -0.002387   
C250     C      0.326600000000     0.410920000000     0.540900000000    -0.0890925  
C251     C      0.252300000000     0.422870000000     0.487320000000    -0.0347674  
C252     C      0.367060000000     0.425790000000     0.545990000000     0.0839796  
C253     C      0.380840000000     0.477020000000     0.506410000000     0.0710532  
C254     C      0.215880000000     0.421140000000     0.486950000000    -0.0320115  
C255     C      0.164540000000     0.424210000000     0.517830000000     0.0523815  
C256     C      0.312710000000     0.430100000000     0.519190000000     0.0519583  
C257     C      0.119480000000     0.631870000000     0.874030000000    -0.0747324  
C258     C      0.056450000000     0.518350000000     0.678210000000     0.0753104  
C259     C      0.039330000000     0.566320000000     0.661980000000     0.0766025  
C260     C      0.066000000000     0.532690000000     0.710420000000    -0.0903643  
C261     C      0.046810000000     0.593880000000     0.765620000000    -0.0323227  
C262     C      0.052450000000     0.606400000000     0.798070000000    -0.0348474  
C263     C      0.069190000000     0.578860000000     0.753570000000    -0.00540359 
C264     C      0.049210000000     0.581740000000     0.693620000000    -0.0924416  
C265     C      0.080220000000     0.603810000000     0.820060000000    -0.00070315 
C266     C      0.049790000000     0.606280000000     0.871550000000    -0.0824553  
C267     C      0.103170000000     0.589430000000     0.808030000000    -0.0349689  
C268     C      0.052170000000     0.614560000000     0.904710000000     0.0691422  
C269     C      0.121340000000     0.640320000000     0.907730000000     0.0531235  
C270     C      0.097780000000     0.577200000000     0.775290000000    -0.032548   
C271     C      0.061900000000     0.564520000000     0.718810000000     0.0501335  
C272     C      0.083410000000     0.614140000000     0.855620000000     0.0438415  
C273     C      0.010360000000     0.524010000000     0.374990000000    -0.0768089  
C274     C      0.042000000000     0.614300000000     0.170980000000     0.0837774  
C275     C      0.066090000000     0.570700000000     0.167040000000     0.0786768  
C276     C      0.043360000000     0.610810000000     0.205460000000    -0.0904677  
C277     C      0.084260000000     0.573950000000     0.274980000000    -0.0323471  
C278     C      0.082050000000     0.564770000000     0.308720000000    -0.0336292  
C279     C      0.055350000000     0.579830000000     0.257790000000    -0.00383808 
C280     C      0.067790000000     0.566530000000     0.201270000000    -0.0907614  
C281     C      0.050970000000     0.561360000000     0.326490000000    -0.00211535 
C282     C      0.080500000000     0.561230000000     0.383490000000    -0.0884999  
C283     C      0.022750000000     0.568500000000     0.309530000000    -0.0332089  
C284     C      0.076520000000     0.547880000000     0.416220000000     0.0718336  
C285     C      0.006700000000     0.511060000000     0.408150000000     0.0536603  
C286     C      0.024870000000     0.577520000000     0.275720000000    -0.0316626  
C287     C      0.055910000000     0.586260000000     0.221160000000     0.052611   
C288     C      0.047280000000     0.549040000000     0.362160000000     0.0464887  
C289     C      0.866900000000     0.482340000000     0.958820000000    -0.0786582  
C290     C      0.651200000000     0.245610000000     0.952030000000     0.0737914  
C291     C      0.683790000000     0.249390000000     0.003960000000     0.0777128  
C292     C      0.674990000000     0.286410000000     0.947360000000    -0.096242   
C293     C      0.736610000000     0.376940000000     0.993010000000    -0.034314   
C294     C      0.771240000000     0.413360000000     0.995720000000    -0.0363975  
C295     C      0.731160000000     0.351320000000     0.967910000000    -0.00803674 
C296     C      0.706930000000     0.289860000000     0.000570000000    -0.0964015  
C297     C      0.801140000000     0.424580000000     0.973510000000    -0.00395539 
C298     C      0.858020000000     0.456040000000     0.013860000000    -0.0885758  
C299     C      0.793550000000     0.400960000000     0.946170000000    -0.0349972  
C300     C      0.898030000000     0.480470000000     0.020980000000     0.0748165  
C301     C      0.907410000000     0.507490000000     0.966600000000     0.0525758  
C302     C      0.758720000000     0.364530000000     0.943380000000    -0.0331589  
C303     C      0.703010000000     0.308840000000     0.972010000000     0.0521878  
C304     C      0.842120000000     0.455890000000     0.982290000000     0.0459522  
C305     C      0.189790000000     0.782810000000     0.095780000000    -0.0776682  
C306     C      0.430500000000     0.972350000000     0.037980000000     0.0900006  
C307     C      0.414440000000     0.005180000000     0.075770000000     0.0848835  
C308     C      0.394520000000     0.937770000000     0.042390000000    -0.0895589  
C309     C      0.333270000000     0.865640000000     0.080910000000    -0.0317765  
C310     C      0.298980000000     0.829700000000     0.086480000000    -0.0307448  
C311     C      0.331170000000     0.899090000000     0.070950000000    -0.00286404 
C312     C      0.377700000000     0.971210000000     0.080210000000    -0.0900159  
C313     C      0.261420000000     0.825880000000     0.081510000000    -0.00219525 
C314     C      0.224120000000     0.752070000000     0.077470000000    -0.0889227  
C315     C      0.259490000000     0.859750000000     0.072010000000    -0.0315454  
C316     C      0.189430000000     0.715770000000     0.079170000000     0.0761402  
C317     C      0.155040000000     0.745770000000     0.097380000000     0.0634326  
C318     C      0.293990000000     0.896000000000     0.067120000000    -0.033307   
C319     C      0.367920000000     0.936690000000     0.064110000000     0.0569473  
C320     C      0.224660000000     0.786530000000     0.085010000000     0.0488432  
C321     C      0.858740000000     0.534610000000     0.085070000000    -0.0775911  
C322     C      0.683800000000     0.608690000000     0.032750000000     0.0826534  
C323     C      0.637840000000     0.540940000000     0.025620000000     0.0802409  
C324     C      0.713920000000     0.600440000000     0.041070000000    -0.0919163  
C325     C      0.745270000000     0.531340000000     0.025520000000    -0.0339634  
C326     C      0.778870000000     0.527670000000     0.029560000000    -0.0361238  
C327     C      0.738490000000     0.553040000000     0.047860000000    -0.00661699 
C328     C      0.667480000000     0.531720000000     0.033220000000    -0.0932845  
C329     C      0.805820000000     0.544850000000     0.056410000000    -0.0034517  
C330     C      0.869610000000     0.565980000000     0.031840000000    -0.087693   
C331     C      0.797840000000     0.564520000000     0.079780000000    -0.0341687  
C332     C      0.908240000000     0.573700000000     0.034590000000     0.0734779  
C333     C      0.897720000000     0.541540000000     0.087010000000     0.058966   
C334     C      0.764680000000     0.568910000000     0.075370000000    -0.0329963  
C335     C      0.706040000000     0.561660000000     0.041080000000     0.0530624  
C336     C      0.844750000000     0.547340000000     0.057570000000     0.0463208  
C337     C      0.385250000000     0.606170000000     0.047270000000    -0.0748305  
C338     C      0.150120000000     0.545920000000     0.989440000000     0.079165   
C339     C      0.159860000000     0.560770000000     0.046030000000     0.081809   
C340     C      0.180060000000     0.536090000000     0.992300000000    -0.0920844  
C341     C      0.245410000000     0.521040000000     0.055910000000    -0.0333293  
C342     C      0.283760000000     0.528840000000     0.064280000000    -0.0347604  
C343     C      0.237030000000     0.536570000000     0.026640000000    -0.00575656 
C344     C      0.188650000000     0.550340000000     0.049920000000    -0.0929138  
C345     C      0.314680000000     0.552030000000     0.043420000000    -0.00113516 
C346     C      0.368780000000     0.545560000000     0.075430000000    -0.087811   
C347     C      0.305300000000     0.563690000000     0.012490000000    -0.033215   
C348     C      0.408760000000     0.561210000000     0.085050000000     0.0786339  
C349     C      0.424930000000     0.621520000000     0.057730000000     0.0680474  
C350     C      0.267010000000     0.556220000000     0.004260000000    -0.0304611  
C351     C      0.200460000000     0.539310000000     0.022810000000     0.0529897  
C352     C      0.356800000000     0.567490000000     0.054960000000     0.0507192  
C353     C      0.860300000000     0.793530000000     0.562540000000    -0.0762011  
C354     C      0.624290000000     0.623610000000     0.606450000000     0.0789677  
C355     C      0.654320000000     0.584770000000     0.605420000000     0.0807447  
C356     C      0.660870000000     0.656840000000     0.614020000000    -0.0922031  
C357     C      0.740640000000     0.722230000000     0.593810000000    -0.0311935  
C358     C      0.778430000000     0.753850000000     0.588800000000    -0.0348609  
C359     C      0.735010000000     0.690700000000     0.614890000000    -0.00574773 
C360     C      0.691340000000     0.617360000000     0.613030000000    -0.0921168  
C361     C      0.811700000000     0.755040000000     0.604870000000    -0.00252072 
C362     C      0.881230000000     0.809220000000     0.619030000000    -0.0896502  
C363     C      0.806190000000     0.724730000000     0.627350000000    -0.0352446  
C364     C      0.916940000000     0.841090000000     0.608770000000     0.0737386  
C365     C      0.896640000000     0.824710000000     0.552840000000     0.0548688  
C366     C      0.768200000000     0.692670000000     0.632130000000    -0.0331561  
C367     C      0.695310000000     0.654460000000     0.615540000000     0.0525697  
C368     C      0.851730000000     0.786300000000     0.595660000000     0.046734   
C369     C      0.375920000000     0.315620000000     0.463960000000    -0.0791004  
C370     C      0.152880000000     0.107690000000     0.497410000000     0.0787391  
C371     C      0.181160000000     0.066970000000     0.499090000000     0.0845262  
C372     C      0.187600000000     0.139480000000     0.486510000000    -0.0932776  
C373     C      0.262160000000     0.202500000000     0.457640000000    -0.0323388  
C374     C      0.296020000000     0.239620000000     0.459460000000    -0.0336889  
C375     C      0.259390000000     0.171230000000     0.477690000000    -0.00463421 
C376     C      0.216690000000     0.098430000000     0.488360000000    -0.0914316  
C377     C      0.327890000000     0.246070000000     0.481160000000    -0.0032343  
C378     C      0.373030000000     0.297140000000     0.521040000000    -0.0927533  
C379     C      0.326640000000     0.213870000000     0.498620000000    -0.032965   
C380     C      0.401930000000     0.335360000000     0.528370000000     0.0768346  
C381     C      0.404880000000     0.354430000000     0.471820000000     0.055884   
C382     C      0.292690000000     0.176850000000     0.497000000000    -0.0315616  
C383     C      0.220510000000     0.135530000000     0.482830000000     0.0546907  
C384     C      0.360040000000     0.286620000000     0.488560000000     0.0494231  
C385     C      0.712890000000     0.025320000000     0.520120000000    -0.0803946  
C386     C      0.900840000000     0.985620000000     0.579650000000     0.0866773  
C387     C      0.905000000000     0.001620000000     0.522720000000     0.0826355  
C388     C      0.878490000000     0.003120000000     0.583490000000    -0.0934796  
C389     C      0.806420000000     0.008900000000     0.581200000000    -0.0304051  
C390     C      0.774200000000     0.014290000000     0.580620000000    -0.0328303  
C391     C      0.836430000000     0.029420000000     0.558860000000    -0.0056418  
C392     C      0.880930000000     0.017790000000     0.525370000000    -0.09399    
C393     C      0.770640000000     0.039650000000     0.557260000000    -0.00280736 
C394     C      0.710240000000     0.035160000000     0.577260000000    -0.0910071  
C395     C      0.801550000000     0.062200000000     0.536280000000    -0.0341043  
C396     C      0.670020000000     0.020820000000     0.572550000000     0.0795669  
C397     C      0.672130000000     0.010230000000     0.515770000000     0.0656045  
C398     C      0.834470000000     0.057460000000     0.537340000000    -0.0311432  
C399     C      0.866810000000     0.018130000000     0.556030000000     0.0555527  
C400     C      0.731690000000     0.036120000000     0.551160000000     0.0514641  
C401     C      0.197370000000     0.985070000000     0.590890000000    -0.0748227  
C402     C      0.365750000000     0.934380000000     0.509770000000     0.0925539  
C403     C      0.368070000000     0.916280000000     0.565740000000     0.0899764  
C404     C      0.328590000000     0.930410000000     0.513300000000    -0.0861705  
C405     C      0.245130000000     0.913600000000     0.532930000000    -0.0321852  
C406     C      0.215060000000     0.919880000000     0.542010000000    -0.0339222  
C407     C      0.280230000000     0.928010000000     0.552400000000    -0.00413477 
C408     C      0.330950000000     0.910700000000     0.569850000000    -0.0951728  
C409     C      0.219900000000     0.941070000000     0.570460000000    -0.00156621 
C410     C      0.149090000000     0.918230000000     0.578560000000    -0.0893941  
C411     C      0.255320000000     0.955950000000     0.589490000000    -0.0348384  
C412     C      0.119590000000     0.926410000000     0.584410000000     0.0808807  
C413     C      0.167090000000     0.992500000000     0.597010000000     0.0568752  
C414     C      0.285100000000     0.949580000000     0.580530000000    -0.0277183  
C415     C      0.312330000000     0.921080000000     0.544380000000     0.0597112  
C416     C      0.188400000000     0.948240000000     0.580000000000     0.0488616  
C417     C      0.019490000000     0.829290000000     0.443390000000    -0.0744627  
C418     C      0.079930000000     0.637280000000     0.469920000000     0.0761177  
C419     C      0.011030000000     0.607120000000     0.475090000000     0.0744003  
C420     C      0.080900000000     0.670640000000     0.455320000000    -0.0931544  
C421     C      0.081990000000     0.747150000000     0.455300000000    -0.0325922  
C422     C      0.080660000000     0.781590000000     0.457080000000    -0.0347257  
C423     C      0.048090000000     0.711820000000     0.445730000000    -0.00566288 
C424     C      0.011060000000     0.640140000000     0.461470000000    -0.094177   
C425     C      0.045130000000     0.781600000000     0.450370000000    -0.00178777 
C426     C      0.060230000000     0.832510000000     0.491110000000    -0.0915873  
C427     C      0.012470000000     0.747700000000     0.437240000000    -0.034126   
C428     C      0.058700000000     0.864400000000     0.501580000000     0.081033   
C429     C      0.018220000000     0.861940000000     0.454660000000     0.0716326  
C430     C      0.014110000000     0.713320000000     0.434510000000    -0.0316766  
C431     C      0.046510000000     0.673400000000     0.452630000000     0.051318   
C432     C      0.041450000000     0.814960000000     0.461370000000     0.0495017  
C433     C      0.986170000000     0.116500000000     0.613300000000    -0.0776656  
C434     C      0.018250000000     0.349020000000     0.541200000000     0.0868698  
C435     C      0.027910000000     0.360600000000     0.598390000000     0.0857481  
C436     C      0.013930000000     0.312010000000     0.546370000000    -0.0931658  
C437     C      0.977640000000     0.226550000000     0.562290000000    -0.0319722  
C438     C      0.972270000000     0.188740000000     0.564040000000    -0.0345895  
C439     C      0.005440000000     0.256120000000     0.583500000000    -0.00453288 
C440     C      0.022920000000     0.322980000000     0.604570000000    -0.0892414  
C441     C      0.993840000000     0.179140000000     0.587510000000    -0.00322563 
C442     C      0.002110000000     0.131240000000     0.556720000000    -0.0895269  
C443     C      0.019730000000     0.207690000000     0.610180000000    -0.0341462  
C444     C      0.007470000000     0.099070000000     0.556270000000     0.0738644  
C445     C      0.990820000000     0.083380000000     0.612230000000     0.0513216  
C446     C      0.025600000000     0.245870000000     0.608130000000    -0.0324068  
C447     C      0.014410000000     0.297590000000     0.578350000000     0.0559102  
C448     C      0.992930000000     0.141210000000     0.585760000000     0.0462809  
C449     C      0.063400000000     0.004250000000     0.898010000000    -0.076764   
C450     C      0.036920000000     0.966460000000     0.686070000000     0.0817419  
C451     C      0.082770000000     0.034780000000     0.683500000000     0.0953941  
C452     C      0.035690000000     0.967860000000     0.720070000000    -0.0932764  
C453     C      0.052780000000     0.038850000000     0.783750000000    -0.0310223  
C454     C      0.048340000000     0.041240000000     0.817130000000    -0.0337036  
C455     C      0.053590000000     0.006490000000     0.771780000000    -0.00472403 
C456     C      0.082420000000     0.037240000000     0.717530000000    -0.0914595  
C457     C      0.044480000000     0.011270000000     0.839370000000    -0.00171669 
C458     C      0.020870000000     0.030760000000     0.886890000000    -0.088045   
C459     C      0.044700000000     0.978620000000     0.827320000000    -0.0348196  
C460     C      0.022470000000     0.037340000000     0.920410000000     0.0696716  
C461     C      0.064180000000     0.010390000000     0.931710000000     0.054874   
C462     C      0.049320000000     0.976320000000     0.793980000000    -0.0320611  
C463     C      0.057680000000     0.003760000000     0.736140000000     0.0575636  
C464     C      0.042440000000     0.015110000000     0.875210000000     0.0465715  
C465     C      0.106030000000     0.100330000000     0.217850000000    -0.0774228  
C466     C      0.018790000000     0.023570000000     0.420680000000     0.0862592  
C467     C      0.081830000000     0.029490000000     0.427230000000     0.0895509  
C468     C      0.026560000000     0.039030000000     0.388780000000    -0.0930334  
C469     C      0.052120000000     0.082620000000     0.324410000000    -0.0311285  
C470     C      0.053880000000     0.089480000000     0.290460000000    -0.0344117  
C471     C      0.069460000000     0.062120000000     0.340190000000    -0.00529031 
C472     C      0.090890000000     0.045740000000     0.395550000000    -0.0923391  
C473     C      0.073850000000     0.076920000000     0.271670000000    -0.00143477 
C474     C      0.035530000000     0.061980000000     0.218320000000    -0.0870137  
C475     C      0.093140000000     0.058530000000     0.287410000000    -0.0328405  
C476     C      0.033670000000     0.063860000000     0.184170000000     0.088597   
C477     C      0.103700000000     0.102600000000     0.183270000000     0.0599469  
C478     C      0.090710000000     0.050880000000     0.321290000000    -0.0296869  
C479     C      0.062680000000     0.049680000000     0.375450000000     0.0564746  
C480     C      0.071900000000     0.080230000000     0.235440000000     0.0525043  
C481     C      0.737270000000     0.727620000000     0.085750000000    -0.0800499  
C482     C      0.929940000000     0.942060000000     0.023700000000     0.0829575  
C483     C      0.976570000000     0.920760000000     0.031370000000     0.085567   
C484     C      0.899270000000     0.904000000000     0.028820000000    -0.0947157  
C485     C      0.856040000000     0.834360000000     0.075970000000    -0.0293728  
C486     C      0.818990000000     0.802090000000     0.081580000000    -0.033513   
C487     C      0.875850000000     0.836030000000     0.048040000000    -0.00646005 
C488     C      0.946440000000     0.882100000000     0.036480000000    -0.0917711  
C489     C      0.801340000000     0.771430000000     0.059080000000    -0.00426401 
C490     C      0.737320000000     0.743880000000     0.028310000000    -0.094401   
C491     C      0.823400000000     0.771030000000     0.033470000000    -0.0346093  
C492     C      0.696630000000     0.724610000000     0.027320000000     0.0802871  
C493     C      0.695740000000     0.707030000000     0.084100000000     0.0606793  
C494     C      0.860610000000     0.803330000000     0.027930000000    -0.0332912  
C495     C      0.907720000000     0.874190000000     0.036950000000     0.059256   
C496     C      0.758120000000     0.745930000000     0.057700000000     0.0499223  
C497     C      0.358540000000     0.479260000000     0.988750000000    -0.0800263  
C498     C      0.190340000000     0.235080000000     0.059850000000     0.0797923  
C499     C      0.177550000000     0.226870000000     0.002250000000     0.0798095  
C500     C      0.217280000000     0.275070000000     0.054820000000    -0.0928596  
C501     C      0.247430000000     0.361040000000     0.036150000000    -0.0345535  
C502     C      0.274190000000     0.401060000000     0.032280000000    -0.035051   
C503     C      0.249110000000     0.333760000000     0.016560000000    -0.00715305 
C504     C      0.204240000000     0.266230000000     0.996350000000    -0.0981565  
C505     C      0.303230000000     0.414330000000     0.008960000000    -0.00526221 
C506     C      0.360160000000     0.456950000000     0.044380000000    -0.096596   
C507     C      0.302550000000     0.387490000000     0.987340000000    -0.0342605  
C508     C      0.398880000000     0.486420000000     0.048190000000     0.0790316  
C509     C      0.397520000000     0.510670000000     0.993850000000     0.0570672  
C510     C      0.275730000000     0.347440000000     0.991150000000    -0.0335996  
C511     C      0.223400000000     0.291150000000     0.022740000000     0.0531766  
C512     C      0.340180000000     0.451840000000     0.014090000000     0.0502932  
C513     C      0.924920000000     0.126810000000     0.118620000000    -0.0730333  
C514     C      0.712030000000     0.141760000000     0.088230000000     0.0801837  
C515     C      0.672840000000     0.077080000000     0.109110000000     0.0792433  
C516     C      0.746420000000     0.140950000000     0.096970000000    -0.093214   
C517     C      0.779130000000     0.067690000000     0.110940000000    -0.0322613  
C518     C      0.813620000000     0.065830000000     0.109450000000    -0.0334221  
C519     C      0.780970000000     0.103770000000     0.115110000000    -0.00447928 
C520     C      0.706950000000     0.075390000000     0.118630000000    -0.0908634  
C521     C      0.851140000000     0.100100000000     0.111240000000    -0.000783031
C522     C      0.886490000000     0.071370000000     0.084210000000    -0.0808789  
C523     C      0.852930000000     0.135840000000     0.117060000000    -0.0335044  
C524     C      0.920920000000     0.071890000000     0.077190000000     0.0844454  
C525     C      0.959690000000     0.127850000000     0.110340000000     0.0580267  
C526     C      0.818530000000     0.137500000000     0.119520000000    -0.0322728  
C527     C      0.744470000000     0.106970000000     0.111210000000     0.0521935  
C528     C      0.887850000000     0.099010000000     0.105150000000     0.0503139  
C529     C      0.242830000000     0.115400000000     0.014470000000    -0.0779913  
C530     C      0.467230000000     0.163330000000     0.020490000000     0.0753589  
C531     C      0.436320000000     0.109960000000     0.984030000000     0.0709603  
C532     C      0.440170000000     0.175020000000     0.010550000000    -0.0936624  
C533     C      0.364760000000     0.174710000000     0.010120000000    -0.0320954  
C534     C      0.329110000000     0.174140000000     0.009340000000    -0.0351171  
C535     C      0.374140000000     0.158900000000     0.984260000000    -0.00548756 
C536     C      0.407280000000     0.119630000000     0.974770000000    -0.0910805  
C537     C      0.301390000000     0.157010000000     0.983140000000    -0.00422606 
C538     C      0.236620000000     0.154890000000     0.970530000000    -0.090432   
C539     C      0.311720000000     0.144520000000     0.955850000000    -0.0337795  
C540     C      0.197730000000     0.141040000000     0.979100000000     0.0814091  
C541     C      0.203800000000     0.100970000000     0.022010000000     0.0750244  
C542     C      0.348010000000     0.145780000000     0.956260000000    -0.0328363  
C543     C      0.408240000000     0.151990000000     0.988800000000     0.0501935  
C544     C      0.259660000000     0.142670000000     0.989060000000     0.0528611  
C545     C      0.037650000000     0.911360000000     0.101360000000    -0.0752652  
C546     C      0.113410000000     0.758280000000     0.013930000000     0.0870709  
C547     C      0.044020000000     0.727610000000     0.005940000000     0.0819216  
C548     C      0.115560000000     0.793200000000     0.022700000000    -0.0859701  
C549     C      0.106900000000     0.846870000000     0.067930000000    -0.0268069  
C550     C      0.104580000000     0.875700000000     0.084680000000    -0.0310063  
C551     C      0.081000000000     0.827990000000     0.040730000000    -0.000653103
C552     C      0.045020000000     0.761790000000     0.014640000000    -0.0880391  
C553     C      0.075870000000     0.885770000000     0.075010000000     0.00117961 
C554     C      0.107450000000     0.953820000000     0.096560000000    -0.0800089  
C555     C      0.050330000000     0.867360000000     0.047710000000    -0.0295686  
C556     C      0.103520000000     0.985320000000     0.105330000000     0.0776186  
C557     C      0.035070000000     0.943500000000     0.111280000000     0.0682965  
C558     C      0.053070000000     0.839120000000     0.030610000000    -0.031042   
C559     C      0.080810000000     0.794560000000     0.024940000000     0.0595857  
C560     C      0.073730000000     0.917070000000     0.091770000000     0.0500566  
C561     C      0.997840000000     0.216350000000     0.999790000000    -0.0745072  
C562     C      0.037050000000     0.455600000000     0.997000000000     0.0806547  
C563     C      0.050140000000     0.453860000000     0.054490000000     0.0769018  
C564     C      0.037010000000     0.420850000000     0.993190000000    -0.0969667  
C565     C      0.061080000000     0.359360000000     0.991270000000    -0.0333109  
C566     C      0.057570000000     0.323120000000     0.985690000000    -0.0356051  
C567     C      0.040480000000     0.363310000000     0.016260000000    -0.00731562 
C568     C      0.049530000000     0.418280000000     0.051600000000    -0.0940784  
C569     C      0.033010000000     0.289930000000     0.004740000000    -0.00284535 
C570     C      0.068650000000     0.253440000000     0.002400000000    -0.0897287  
C571     C      0.012000000000     0.293680000000     0.029510000000    -0.0345536  
C572     C      0.068980000000     0.218500000000     0.005480000000     0.0791531  
C573     C      0.998890000000     0.181150000000     0.002050000000     0.0551513  
C574     C      0.015910000000     0.330150000000     0.035370000000    -0.032264   
C575     C      0.042640000000     0.401380000000     0.020620000000     0.0534267  
C576     C      0.032900000000     0.252720000000     0.001370000000     0.0464185  
Co1      Co     0.075920000000     0.133040000000     0.078680000000     1.11209    
Co2      Co     0.082520000000     0.046180000000     0.042230000000     1.12095    
Co3      Co     0.072220000000     0.111390000000     0.002010000000     1.08005    
Co4      Co     0.010110000000     0.042560000000     0.075170000000     1.08789    
Co5      Co     0.057280000000     0.964260000000     0.528030000000     1.11487    
Co6      Co     0.992300000000     0.962540000000     0.592220000000     1.10982    
Co7      Co     0.982980000000     0.947510000000     0.512160000000     1.02778    
Co8      Co     0.073670000000     0.033370000000     0.570080000000     1.09737    
Co9      Co     0.040080000000     0.567160000000     0.990940000000     1.07986    
Co10     Co     0.037100000000     0.634990000000     0.056840000000     1.08633    
Co11     Co     0.017510000000     0.546120000000     0.066120000000     1.06464    
Co12     Co     0.112040000000     0.639910000000     0.026390000000     1.0854     
Co13     Co     0.006360000000     0.450270000000     0.506510000000     1.09344    
Co14     Co     0.013460000000     0.537340000000     0.555450000000     1.11113    
Co15     Co     0.997370000000     0.453610000000     0.584890000000     1.07119    
Co16     Co     0.082050000000     0.531960000000     0.526020000000     1.06965    
Co17     Co     0.541880000000     0.114100000000     0.069570000000     0.909983   
Co18     Co     0.624810000000     0.119100000000     0.013010000000     1.15559    
Co19     Co     0.553470000000     0.130350000000     0.989270000000     1.09178    
Co20     Co     0.554880000000     0.061720000000     0.057070000000     1.12287    
Co21     Co     0.496770000000     0.990610000000     0.585930000000     1.09417    
Co22     Co     0.544520000000     0.980500000000     0.496590000000     1.03369    
Co23     Co     0.494900000000     0.003300000000     0.511860000000     1.05483    
Co24     Co     0.538790000000     0.943150000000     0.572530000000     1.20229    
Co25     Co     0.532040000000     0.561930000000     0.009050000000     1.0753     
Co26     Co     0.555640000000     0.654690000000     0.066260000000     1.19819    
Co27     Co     0.520530000000     0.564350000000     0.081730000000     1.0801     
Co28     Co     0.586310000000     0.636460000000     0.999700000000     1.01111    
Co29     Co     0.524760000000     0.457800000000     0.499040000000     1.082      
Co30     Co     0.509260000000     0.535700000000     0.547640000000     1.13176    
Co31     Co     0.490780000000     0.450640000000     0.570490000000     1.12386    
Co32     Co     0.578770000000     0.528190000000     0.525590000000     1.10234    
H1       H      0.581050000000     0.616710000000     0.911270000000     0.0403887  
H2       H      0.546510000000     0.498010000000     0.656910000000     0.0322727  
H3       H      0.459620000000     0.516230000000     0.814000000000     0.0435998  
H4       H      0.579550000000     0.571260000000     0.749480000000     0.0413733  
H5       H      0.553620000000     0.511990000000     0.714220000000     0.0543682  
H6       H      0.586450000000     0.578120000000     0.809050000000     0.0404386  
H7       H      0.468190000000     0.548990000000     0.701340000000     0.0675508  
H8       H      0.573880000000     0.611910000000     0.852020000000     0.064701   
H9       H      0.483580000000     0.490120000000     0.861940000000     0.0555767  
H10      H      0.452740000000     0.508680000000     0.754340000000     0.0435116  
H11      H      0.490890000000     0.496230000000     0.921360000000     0.0318416  
H12      H      0.402230000000     0.471470000000     0.630710000000     0.144148   
H13      H      0.603080000000     0.588790000000     0.439510000000     0.0341928  
H14      H      0.590790000000     0.581270000000     0.162550000000     0.0386075  
H15      H      0.504440000000     0.581670000000     0.322710000000     0.045067   
H16      H      0.630450000000     0.616630000000     0.273400000000     0.0454882  
H17      H      0.595190000000     0.576680000000     0.221500000000     0.0596622  
H18      H      0.621140000000     0.596440000000     0.331300000000     0.0444697  
H19      H      0.558630000000     0.661220000000     0.228830000000     0.0687745  
H20      H      0.610420000000     0.618910000000     0.385360000000     0.0603389  
H21      H      0.498570000000     0.520470000000     0.353340000000     0.0649452  
H22      H      0.513690000000     0.601690000000     0.264750000000     0.0436779  
H23      H      0.491940000000     0.490900000000     0.408090000000     0.054379   
H24      H      0.486430000000     0.638620000000     0.161890000000     0.14931    
H25      H      0.509950000000     0.598990000000     0.471860000000     0.048056   
H26      H      0.542630000000     0.859130000000     0.545130000000     0.0295307  
H27      H      0.537950000000     0.715620000000     0.421190000000     0.0435665  
H28      H      0.615310000000     0.817190000000     0.504460000000     0.0440552  
H29      H      0.561290000000     0.814550000000     0.528670000000     0.0605959  
H30      H      0.626150000000     0.762550000000     0.501250000000     0.0407995  
H31      H      0.537790000000     0.834450000000     0.427490000000     0.0704727  
H32      H      0.517510000000     0.660320000000     0.452790000000     0.0616855  
H33      H      0.641310000000     0.717670000000     0.483100000000     0.0562006  
H34      H      0.524130000000     0.768370000000     0.427040000000     0.0474697  
H35      H      0.631610000000     0.654590000000     0.504050000000     0.0313312  
H36      H      0.462770000000     0.901960000000     0.428120000000     0.168348   
H37      H      0.525670000000     0.384450000000     0.617830000000     0.0206133  
H38      H      0.550950000000     0.110660000000     0.582590000000     0.0533874  
H39      H      0.500260000000     0.268830000000     0.530960000000     0.0439167  
H40      H      0.533260000000     0.206120000000     0.626320000000     0.0412413  
H41      H      0.558290000000     0.173170000000     0.593010000000     0.0582234  
H42      H      0.551820000000     0.275390000000     0.628950000000     0.0393286  
H43      H      0.441350000000     0.133720000000     0.551560000000     0.0654143  
H44      H      0.519280000000     0.319840000000     0.626880000000     0.0549947  
H45      H      0.568390000000     0.331260000000     0.532760000000     0.0600368  
H46      H      0.482490000000     0.200410000000     0.528030000000     0.0449545  
H47      H      0.573790000000     0.394830000000     0.524600000000     0.0361052  
H48      H      0.394440000000     0.018950000000     0.583300000000     0.142971   
H49      H      0.511850000000     0.056660000000     0.908600000000     0.0276983  
H50      H      0.552870000000     0.943090000000     0.671350000000     0.0324881  
H51      H      0.515690000000     0.978760000000     0.825390000000     0.0402752  
H52      H      0.636830000000     0.069240000000     0.766600000000     0.0444774  
H53      H      0.560750000000     0.951460000000     0.730110000000     0.057731   
H54      H      0.632550000000     0.081000000000     0.823890000000     0.0406836  
H55      H      0.599610000000     0.073990000000     0.715790000000     0.0603755  
H56      H      0.511820000000     0.031620000000     0.855170000000     0.0559131  
H57      H      0.628470000000     0.050750000000     0.879550000000     0.0558316  
H58      H      0.519880000000     0.967260000000     0.767710000000     0.0414312  
H59      H      0.627880000000     0.075830000000     0.932050000000     0.0220266  
H60      H      0.559780000000     0.099140000000     0.660520000000     0.144697   
H61      H      0.539080000000     0.992440000000     0.421180000000     0.0267918  
H62      H      0.579310000000     0.108910000000     0.159640000000     0.046843   
H63      H      0.506990000000     0.968460000000     0.314510000000     0.0477161  
H64      H      0.515670000000     0.083570000000     0.252690000000     0.0444595  
H65      H      0.566420000000     0.099480000000     0.216780000000     0.0602664  
H66      H      0.505370000000     0.077160000000     0.311470000000     0.0426804  
H67      H      0.496460000000     0.974980000000     0.203500000000     0.0665524  
H68      H      0.544070000000     0.998690000000     0.362610000000     0.0639706  
H69      H      0.463230000000     0.042640000000     0.356430000000     0.0588299  
H70      H      0.520500000000     0.976460000000     0.256750000000     0.0470095  
H71      H      0.459440000000     0.036070000000     0.416340000000     0.0390691  
H72      H      0.563630000000     0.971800000000     0.134800000000     0.149653   
H73      H      0.644480000000     0.035010000000     0.982500000000     0.0212192  
H74      H      0.555230000000     0.739090000000     0.029180000000     0.0441709  
H75      H      0.520730000000     0.874530000000     0.939790000000     0.0421166  
H76      H      0.635200000000     0.855830000000     0.964020000000     0.0445457  
H77      H      0.565090000000     0.800460000000     0.008820000000     0.0661854  
H78      H      0.642860000000     0.920200000000     0.971560000000     0.0410919  
H79      H      0.561890000000     0.766590000000     0.910090000000     0.0679623  
H80      H      0.641780000000     0.980130000000     0.955180000000     0.0548745  
H81      H      0.526420000000     0.903480000000     0.992290000000     0.0610435  
H82      H      0.513150000000     0.809810000000     0.933140000000     0.0467033  
H83      H      0.529780000000     0.958340000000     0.018630000000     0.041963   
H84      H      0.486540000000     0.649580000000     0.924360000000     0.161156   
H85      H      0.576160000000     0.500650000000     0.104540000000     0.0333767  
H86      H      0.590700000000     0.240630000000     0.000650000000     0.0242109  
H87      H      0.631330000000     0.425340000000     0.083830000000     0.0395953  
H88      H      0.527910000000     0.289970000000     0.053770000000     0.0406009  
H89      H      0.589450000000     0.299290000000     0.010190000000     0.0538313  
H90      H      0.510470000000     0.340860000000     0.055330000000     0.0393256  
H91      H      0.614510000000     0.290330000000     0.113100000000     0.0670232  
H92      H      0.593210000000     0.449400000000     0.110230000000     0.0574131  
H93      H      0.523050000000     0.397240000000     0.021480000000     0.0544331  
H94      H      0.648350000000     0.373440000000     0.083100000000     0.0425869  
H95      H      0.506130000000     0.448300000000     0.016890000000     0.0345914  
H96      H      0.678210000000     0.233420000000     0.092680000000     0.14782    
H97      H      0.646140000000     0.086440000000     0.485870000000     0.0427167  
H98      H      0.889490000000     0.404680000000     0.483000000000     0.0457925  
H99      H      0.690440000000     0.231850000000     0.551390000000     0.0440623  
H100     H      0.786490000000     0.279700000000     0.463420000000     0.0444112  
H101     H      0.821090000000     0.355500000000     0.472010000000     0.058735   
H102     H      0.724350000000     0.217540000000     0.456780000000     0.0428159  
H103     H      0.819290000000     0.300350000000     0.565310000000     0.0671125  
H104     H      0.701010000000     0.153210000000     0.485140000000     0.0596973  
H105     H      0.626430000000     0.193090000000     0.520110000000     0.0571742  
H106     H      0.752270000000     0.294230000000     0.557710000000     0.0424406  
H107     H      0.571760000000     0.125620000000     0.520240000000     0.033526   
H108     H      0.890450000000     0.376200000000     0.627200000000     0.15027    
H109     H      0.160990000000     0.578130000000     0.600530000000     0.0303777  
H110     H      0.413910000000     0.904820000000     0.637040000000     0.0229698  
H111     H      0.257170000000     0.698150000000     0.570170000000     0.0425837  
H112     H      0.299670000000     0.787410000000     0.664720000000     0.0402481  
H113     H      0.347910000000     0.849900000000     0.643150000000     0.0517768  
H114     H      0.231630000000     0.731630000000     0.660270000000     0.0407359  
H115     H      0.382880000000     0.773600000000     0.604440000000     0.0684156  
H116     H      0.222900000000     0.635380000000     0.616910000000     0.0588051  
H117     H      0.167480000000     0.705690000000     0.607080000000     0.0548342  
H118     H      0.323730000000     0.754000000000     0.573450000000     0.0465317  
H119     H      0.105260000000     0.647380000000     0.590260000000     0.0231103  
H120     H      0.525630000000     0.846700000000     0.605530000000     0.15256    
H121     H      0.886500000000     0.436210000000     0.612570000000     0.0252227  
H122     H      0.690470000000     0.548860000000     0.538540000000     0.0329826  
H123     H      0.767280000000     0.408090000000     0.501990000000     0.0413854  
H124     H      0.730710000000     0.469800000000     0.585140000000     0.0396722  
H125     H      0.732040000000     0.521410000000     0.552490000000     0.0536507  
H126     H      0.782980000000     0.455020000000     0.598770000000     0.0390368  
H127     H      0.658580000000     0.424100000000     0.489060000000     0.0612913  
H128     H      0.816000000000     0.414450000000     0.605400000000     0.0546899  
H129     H      0.835110000000     0.460790000000     0.505910000000     0.0592569  
H130     H      0.717440000000     0.425730000000     0.487320000000     0.0449678  
H131     H      0.903350000000     0.481570000000     0.513800000000     0.0460793  
H132     H      0.635520000000     0.506220000000     0.428150000000     0.153763   
H133     H      0.084610000000     0.417360000000     0.474350000000     0.0249977  
H134     H      0.375910000000     0.410060000000     0.563810000000     0.0262507  
H135     H      0.204310000000     0.427450000000     0.464110000000     0.0414619  
H136     H      0.261970000000     0.405640000000     0.569270000000     0.0421761  
H137     H      0.306360000000     0.384960000000     0.554610000000     0.055098   
H138     H      0.198220000000     0.401480000000     0.568380000000     0.0403485  
H139     H      0.329980000000     0.478170000000     0.484770000000     0.0633805  
H140     H      0.131610000000     0.394100000000     0.473570000000     0.0552488  
H141     H      0.189750000000     0.458330000000     0.562010000000     0.0577639  
H142     H      0.267290000000     0.429470000000     0.464540000000     0.0458219  
H143     H      0.143280000000     0.480550000000     0.562080000000     0.0336334  
H144     H      0.379180000000     0.544970000000     0.459940000000     0.154012   
H145     H      0.029250000000     0.580550000000     0.643660000000     0.023041   
H146     H      0.024690000000     0.607350000000     0.915230000000     0.0524352  
H147     H      0.116110000000     0.566420000000     0.767080000000     0.0400992  
H148     H      0.034620000000     0.617940000000     0.805920000000     0.04291    
H149     H      0.021060000000     0.592570000000     0.858810000000     0.0619319  
H150     H      0.024040000000     0.595250000000     0.750230000000     0.0397198  
H151     H      0.146240000000     0.639640000000     0.861990000000     0.0627876  
H152     H      0.046710000000     0.607140000000     0.698160000000     0.0536807  
H153     H      0.075410000000     0.518010000000     0.728780000000     0.0550081  
H154     H      0.124690000000     0.586660000000     0.824100000000     0.0415743  
H155     H      0.059450000000     0.493350000000     0.673060000000     0.0295197  
H156     H      0.176840000000     0.616710000000     0.938790000000     0.147085   
H157     H      0.075060000000     0.554230000000     0.152930000000     0.0322962  
H158     H      0.103610000000     0.558400000000     0.431260000000     0.0263339  
H159     H      0.001850000000     0.581520000000     0.263500000000     0.0434931  
H160     H      0.104240000000     0.559280000000     0.320650000000     0.0414088  
H161     H      0.109750000000     0.581220000000     0.375060000000     0.0543972  
H162     H      0.108610000000     0.576100000000     0.262310000000     0.0416292  
H163     H      0.984280000000     0.513800000000     0.358810000000     0.0662122  
H164     H      0.077240000000     0.546810000000     0.211920000000     0.0567376  
H165     H      0.034350000000     0.627130000000     0.219640000000     0.0590784  
H166     H      0.998730000000     0.566890000000     0.322330000000     0.0441481  
H167     H      0.031030000000     0.632660000000     0.159940000000     0.0376564  
H168     H      0.950160000000     0.523720000000     0.443640000000     0.146646   
H169     H      0.688340000000     0.236130000000     0.026500000000     0.0312708  
H170     H      0.908480000000     0.478470000000     0.045890000000     0.0379549  
H171     H      0.755270000000     0.345140000000     0.923940000000     0.0405331  
H172     H      0.776000000000     0.431320000000     0.016690000000     0.0399518  
H173     H      0.840040000000     0.435820000000     0.032800000000     0.0584931  
H174     H      0.715600000000     0.367390000000     0.012130000000     0.0399312  
H175     H      0.854640000000     0.482480000000     0.934290000000     0.0640262  
H176     H      0.728750000000     0.306150000000     0.019910000000     0.0573043  
H177     H      0.671570000000     0.300270000000     0.924780000000     0.0543649  
H178     H      0.816070000000     0.408760000000     0.928700000000     0.0422525  
H179     H      0.629540000000     0.228880000000     0.932730000000     0.0210049  
H180     H      0.959240000000     0.501240000000     0.921590000000     0.146641   
H181     H      0.421630000000     0.030940000000     0.089550000000     0.0298054  
H182     H      0.190810000000     0.690510000000     0.071750000000     0.021882   
H183     H      0.291570000000     0.921360000000     0.059370000000     0.0432309  
H184     H      0.302140000000     0.804920000000     0.094700000000     0.0450851  
H185     H      0.249980000000     0.752930000000     0.068900000000     0.0587862  
H186     H      0.361610000000     0.867370000000     0.084570000000     0.051917   
H187     H      0.189760000000     0.808610000000     0.103490000000     0.0635251  
H188     H      0.357780000000     0.971520000000     0.097120000000     0.0601494  
H189     H      0.387770000000     0.911780000000     0.029190000000     0.0612314  
H190     H      0.231330000000     0.858180000000     0.067460000000     0.0401728  
H191     H      0.450530000000     0.971560000000     0.021420000000     0.0380383  
H192     H      0.074050000000     0.706010000000     0.152770000000     0.157825   
H193     H      0.608410000000     0.516950000000     0.019570000000     0.0312803  
H194     H      0.926270000000     0.588980000000     0.013860000000     0.0453696  
H195     H      0.760020000000     0.585570000000     0.093040000000     0.0452177  
H196     H      0.784560000000     0.512540000000     0.011130000000     0.0406513  
H197     H      0.859790000000     0.576210000000     0.010110000000     0.0587918  
H198     H      0.725670000000     0.518960000000     0.004020000000     0.039675   
H199     H      0.839320000000     0.519910000000     0.105060000000     0.0675798  
H200     H      0.660230000000     0.501350000000     0.033050000000     0.0550225  
H201     H      0.743460000000     0.624450000000     0.046730000000     0.0579434  
H202     H      0.818410000000     0.578390000000     0.100470000000     0.046263   
H203     H      0.691260000000     0.639160000000     0.032830000000     0.0313327  
H204     H      0.958740000000     0.551980000000     0.161460000000     0.158627   
H205     H      0.152960000000     0.570390000000     0.067820000000     0.0387905  
H206     H      0.416630000000     0.542410000000     0.099840000000     0.0230262  
H207     H      0.261730000000     0.568530000000     0.981490000000     0.0443444  
H208     H      0.289530000000     0.518980000000     0.088130000000     0.0400837  
H209     H      0.347720000000     0.515890000000     0.083100000000     0.0528427  
H210     H      0.222800000000     0.505040000000     0.073450000000     0.0395292  
H211     H      0.376360000000     0.624910000000     0.033680000000     0.06511    
H212     H      0.203370000000     0.553530000000     0.073940000000     0.0582363  
H213     H      0.187990000000     0.527280000000     0.970690000000     0.0548329  
H214     H      0.328080000000     0.580470000000     0.995250000000     0.0497287  
H215     H      0.135850000000     0.544560000000     0.965480000000     0.0222281  
H216     H      0.452710000000     0.671530000000     0.997180000000     0.157847   
H217     H      0.653050000000     0.557170000000     0.601560000000     0.029998   
H218     H      0.937870000000     0.859560000000     0.627810000000     0.0250809  
H219     H      0.764880000000     0.668980000000     0.648670000000     0.0387848  
H220     H      0.781790000000     0.776960000000     0.571510000000     0.0450916  
H221     H      0.876000000000     0.803890000000     0.645030000000     0.0547065  
H222     H      0.716010000000     0.721580000000     0.579720000000     0.041333   
H223     H      0.838580000000     0.774480000000     0.544230000000     0.0668669  
H224     H      0.717000000000     0.613920000000     0.614300000000     0.0551802  
H225     H      0.662380000000     0.684710000000     0.616830000000     0.0564697  
H226     H      0.831350000000     0.724910000000     0.640020000000     0.0404509  
H227     H      0.598780000000     0.627310000000     0.603520000000     0.0297253  
H228     H      0.955220000000     0.815320000000     0.518170000000     0.147561   
H229     H      0.179560000000     0.039010000000     0.504240000000     0.037325   
H230     H      0.410830000000     0.341270000000     0.554170000000     0.0237281  
H231     H      0.291620000000     0.153490000000     0.512790000000     0.0461778  
H232     H      0.296060000000     0.263740000000     0.445580000000     0.0448907  
H233     H      0.360530000000     0.276000000000     0.541050000000     0.0555671  
H234     H      0.237230000000     0.198870000000     0.442010000000     0.0410957  
H235     H      0.365620000000     0.307840000000     0.438680000000     0.0658224  
H236     H      0.241330000000     0.094050000000     0.485470000000     0.0608445  
H237     H      0.189190000000     0.167590000000     0.482940000000     0.0563185  
H238     H      0.351150000000     0.217760000000     0.514970000000     0.0424646  
H239     H      0.128620000000     0.112540000000     0.500950000000     0.0290281  
H240     H      0.467430000000     0.380630000000     0.425140000000     0.152177   
H241     H      0.915260000000     0.001700000000     0.498670000000     0.0315198  
H242     H      0.654660000000     0.020100000000     0.593930000000     0.0374615  
H243     H      0.857470000000     0.074520000000     0.520360000000     0.0393065  
H244     H      0.750420000000     0.996000000000     0.596650000000     0.0426814  
H245     H      0.724090000000     0.043550000000     0.601650000000     0.0600765  
H246     H      0.806050000000     0.986420000000     0.597710000000     0.0411332  
H247     H      0.729590000000     0.025640000000     0.499950000000     0.0691868  
H248     H      0.872350000000     0.028490000000     0.503260000000     0.0574434  
H249     H      0.869550000000     0.003740000000     0.607880000000     0.0628336  
H250     H      0.799330000000     0.082020000000     0.518090000000     0.0437818  
H251     H      0.907380000000     0.972650000000     0.601380000000     0.0367804  
H252     H      0.615080000000     0.002340000000     0.439020000000     0.161357   
H253     H      0.383390000000     0.912210000000     0.587050000000     0.0203129  
H254     H      0.089430000000     0.902330000000     0.581680000000     0.0306444  
H255     H      0.312200000000     0.961730000000     0.595700000000     0.0434478  
H256     H      0.188190000000     0.908520000000     0.526610000000     0.0428765  
H257     H      0.141000000000     0.888720000000     0.572020000000     0.0530002  
H258     H      0.240750000000     0.897080000000     0.511080000000     0.0405914  
H259     H      0.227860000000     0.008320000000     0.593730000000     0.0664341  
H260     H      0.318640000000     0.901910000000     0.593890000000     0.054346   
H261     H      0.314610000000     0.938040000000     0.492820000000     0.064002   
H262     H      0.259910000000     0.972170000000     0.611570000000     0.0441077  
H263     H      0.379510000000     0.945300000000     0.486440000000     0.0402958  
H264     H      0.148340000000     0.014280000000     0.658030000000     0.149132   
H265     H      0.982990000000     0.582990000000     0.482790000000     0.0279621  
H266     H      0.073970000000     0.876800000000     0.524890000000     0.0267149  
H267     H      0.987850000000     0.687400000000     0.425370000000     0.0409449  
H268     H      0.106970000000     0.807720000000     0.465960000000     0.0404033  
H269     H      0.076180000000     0.821620000000     0.506640000000     0.052904   
H270     H      0.108970000000     0.748020000000     0.463980000000     0.0383147  
H271     H      0.004980000000     0.816210000000     0.420120000000     0.071891   
H272     H      0.983520000000     0.640090000000     0.460250000000     0.0547476  
H273     H      0.108870000000     0.694650000000     0.447570000000     0.0545103  
H274     H      0.984840000000     0.746850000000     0.431200000000     0.0460792  
H275     H      0.107380000000     0.637070000000     0.473200000000     0.0230948  
H276     H      0.974160000000     0.876500000000     0.377280000000     0.165141   
H277     H      0.032650000000     0.378760000000     0.619220000000     0.0280588  
H278     H      0.015760000000     0.093370000000     0.533200000000     0.0331593  
H279     H      0.047240000000     0.267720000000     0.624850000000     0.03981    
H280     H      0.951880000000     0.167180000000     0.546470000000     0.0408013  
H281     H      0.007220000000     0.149460000000     0.534750000000     0.055073   
H282     H      0.960500000000     0.232790000000     0.543700000000     0.0430446  
H283     H      0.978880000000     0.124170000000     0.635860000000     0.0652752  
H284     H      0.024120000000     0.313400000000     0.629740000000     0.0580709  
H285     H      0.009540000000     0.294540000000     0.525160000000     0.0558824  
H286     H      0.036990000000     0.201070000000     0.628370000000     0.0423912  
H287     H      0.016490000000     0.358220000000     0.515930000000     0.0241981  
H288     H      0.049350000000     0.093680000000     0.665580000000     0.146862   
H289     H      0.101490000000     0.061470000000     0.669800000000     0.0373743  
H290     H      0.005970000000     0.050610000000     0.927860000000     0.035107   
H291     H      0.050010000000     0.951060000000     0.785690000000     0.0405419  
H292     H      0.048740000000     0.067000000000     0.825610000000     0.0420677  
H293     H      0.003280000000     0.038580000000     0.870160000000     0.0571255  
H294     H      0.055240000000     0.062280000000     0.767280000000     0.0450593  
H295     H      0.080280000000     0.992050000000     0.889340000000     0.0655267  
H296     H      0.100920000000     0.065370000000     0.729040000000     0.0589722  
H297     H      0.016210000000     0.941180000000     0.733370000000     0.056494   
H298     H      0.041350000000     0.954780000000     0.843680000000     0.0436429  
H299     H      0.018250000000     0.938330000000     0.674500000000     0.0237643  
H300     H      0.042400000000     0.944530000000     0.981970000000     0.145705   
H301     H      0.103990000000     0.025890000000     0.441640000000     0.0350711  
H302     H      0.004350000000     0.049000000000     0.172360000000     0.0372821  
H303     H      0.104000000000     0.034560000000     0.332280000000     0.0451044  
H304     H      0.039100000000     0.104070000000     0.278750000000     0.0457635  
H305     H      0.008470000000     0.045760000000     0.231290000000     0.062603   
H306     H      0.036420000000     0.092710000000     0.338120000000     0.0405253  
H307     H      0.134330000000     0.114290000000     0.231290000000     0.0677138  
H308     H      0.119600000000     0.054490000000     0.386770000000     0.0590559  
H309     H      0.003490000000     0.040910000000     0.374310000000     0.0582879  
H310     H      0.108490000000     0.048370000000     0.273260000000     0.0490494  
H311     H      0.990060000000     0.014770000000     0.429590000000     0.0324949  
H312     H      0.154260000000     0.184860000000     0.162400000000     0.148714   
H313     H      0.006620000000     0.926590000000     0.033650000000     0.0316686  
H314     H      0.682540000000     0.725210000000     0.003690000000     0.0287229  
H315     H      0.875710000000     0.804250000000     0.006350000000     0.0403284  
H316     H      0.802580000000     0.803140000000     0.101430000000     0.0444022  
H317     H      0.752440000000     0.758630000000     0.006190000000     0.0568431  
H318     H      0.867750000000     0.859460000000     0.091830000000     0.0453373  
H319     H      0.753560000000     0.729030000000     0.108600000000     0.0630008  
H320     H      0.953570000000     0.859260000000     0.042160000000     0.0563022  
H321     H      0.869220000000     0.898230000000     0.028070000000     0.0582357  
H322     H      0.810390000000     0.747370000000     0.016040000000     0.0401134  
H323     H      0.922480000000     0.964870000000     0.019140000000     0.0313813  
H324     H      0.713760000000     0.704740000000     0.161030000000     0.154738   
H325     H      0.162410000000     0.208850000000     0.980980000000     0.020488   
H326     H      0.413140000000     0.486850000000     0.071980000000     0.0235985  
H327     H      0.277540000000     0.327060000000     0.975550000000     0.0389551  
H328     H      0.274390000000     0.421370000000     0.049330000000     0.039227   
H329     H      0.346970000000     0.436280000000     0.064590000000     0.0554622  
H330     H      0.226400000000     0.351350000000     0.055250000000     0.0401632  
H331     H      0.342650000000     0.475930000000     0.965290000000     0.0626365  
H332     H      0.208440000000     0.277320000000     0.971220000000     0.0543001  
H333     H      0.232560000000     0.293390000000     0.075850000000     0.0582653  
H334     H      0.325120000000     0.396980000000     0.969600000000     0.0416181  
H335     H      0.184800000000     0.223760000000     0.084900000000     0.0375619  
H336     H      0.431800000000     0.517390000000     0.930130000000     0.146308   
H337     H      0.644400000000     0.051320000000     0.113560000000     0.0324402  
H338     H      0.917330000000     0.049290000000     0.060900000000     0.037875   
H339     H      0.821630000000     0.165760000000     0.123870000000     0.0412067  
H340     H      0.810580000000     0.037410000000     0.106080000000     0.0411642  
H341     H      0.859050000000     0.049710000000     0.072300000000     0.0579393  
H342     H      0.751080000000     0.040910000000     0.107320000000     0.0412609  
H343     H      0.926870000000     0.147990000000     0.135530000000     0.0646897  
H344     H      0.703680000000     0.048920000000     0.130640000000     0.0575925  
H345     H      0.774180000000     0.166260000000     0.090450000000     0.0553342  
H346     H      0.880820000000     0.163140000000     0.118440000000     0.0437381  
H347     H      0.715360000000     0.168260000000     0.076040000000     0.0306023  
H348     H      0.019470000000     0.200920000000     0.080610000000     0.152627   
H349     H      0.434090000000     0.084220000000     0.973440000000     0.0261689  
H350     H      0.181170000000     0.152370000000     0.964980000000     0.0235769  
H351     H      0.354470000000     0.134460000000     0.935390000000     0.0391512  
H352     H      0.321530000000     0.183590000000     0.030820000000     0.0457545  
H353     H      0.248820000000     0.175720000000     0.950300000000     0.0553384  
H354     H      0.383160000000     0.184640000000     0.032460000000     0.0406849  
H355     H      0.260370000000     0.104900000000     0.028150000000     0.0738162  
H356     H      0.383340000000     0.100540000000     0.958000000000     0.0551854  
H357     H      0.443870000000     0.201470000000     0.020860000000     0.0529314  
H358     H      0.290540000000     0.130890000000     0.935460000000     0.0443481  
H359     H      0.490540000000     0.181360000000     0.038300000000     0.02878    
H360     H      0.203130000000     0.022820000000     0.074750000000     0.157499   
H361     H      0.015350000000     0.702280000000     0.000040000000     0.0320146  
H362     H      0.129880000000     0.013910000000     0.106650000000     0.0489636  
H363     H      0.033140000000     0.825950000000     0.009460000000     0.0413182  
H364     H      0.124750000000     0.889600000000     0.105580000000     0.0469887  
H365     H      0.136250000000     0.959010000000     0.091000000000     0.0600743  
H366     H      0.128270000000     0.838660000000     0.076950000000     0.0495763  
H367     H      0.011730000000     0.882260000000     0.100760000000     0.0642979  
H368     H      0.017320000000     0.761200000000     0.015580000000     0.0572395  
H369     H      0.144100000000     0.818230000000     0.029270000000     0.0568687  
H370     H      0.028590000000     0.875300000000     0.039220000000     0.0411435  
H371     H      0.140630000000     0.757570000000     0.014750000000     0.0317383  
H372     H      0.935170000000     0.926950000000     0.113810000000     0.152734   
H373     H      0.055160000000     0.466100000000     0.078740000000     0.0253959  
H374     H      0.097590000000     0.220680000000     0.008600000000     0.0291653  
H375     H      0.999340000000     0.332340000000     0.054500000000     0.0418507  
H376     H      0.074290000000     0.321070000000     0.966620000000     0.0405368  
H377     H      0.096460000000     0.280950000000     0.003310000000     0.0557516  
H378     H      0.080210000000     0.384470000000     0.976170000000     0.0391419  
H379     H      0.969800000000     0.215440000000     0.997850000000     0.0559509  
H380     H      0.054410000000     0.404120000000     0.073360000000     0.056897   
H381     H      0.031530000000     0.408730000000     0.968860000000     0.0560203  
H382     H      0.993430000000     0.268650000000     0.044920000000     0.0430199  
H383     H      0.032010000000     0.469220000000     0.974900000000     0.0244958  
H384     H      0.910880000000     0.150080000000     0.020500000000     0.151199   
N1       N      0.502900000000     0.514920000000     0.644930000000    -0.20199    
N2       N      0.535990000000     0.557100000000     0.920540000000    -0.192038   
N3       N      0.570320000000     0.622660000000     0.160690000000    -0.200523   
N4       N      0.547430000000     0.537250000000     0.427350000000    -0.208073   
N5       N      0.529200000000     0.874410000000     0.496330000000    -0.200144   
N6       N      0.569830000000     0.622690000000     0.490780000000    -0.200875   
N7       N      0.491520000000     0.084660000000     0.562070000000    -0.193395   
N8       N      0.547500000000     0.392550000000     0.569570000000    -0.210052   
N9       N      0.569440000000     0.003090000000     0.659280000000    -0.203544   
N10      N      0.570360000000     0.069440000000     0.923650000000    -0.206041   
N11      N      0.545380000000     0.047640000000     0.147260000000    -0.174501   
N12      N      0.497350000000     0.011820000000     0.422690000000    -0.191706   
N13      N      0.554070000000     0.715500000000     0.982020000000    -0.196371   
N14      N      0.587430000000     0.000830000000     0.002620000000    -0.20631    
N15      N      0.599300000000     0.228190000000     0.051690000000    -0.190541   
N16      N      0.539950000000     0.478230000000     0.060300000000    -0.201133   
N17      N      0.895260000000     0.381020000000     0.530410000000    -0.191882   
N18      N      0.604950000000     0.101050000000     0.503280000000    -0.206118   
N19      N      0.434950000000     0.872380000000     0.612740000000    -0.199333   
N20      N      0.129110000000     0.609000000000     0.592780000000    -0.20541    
N21      N      0.650010000000     0.502190000000     0.506640000000    -0.18156    
N22      N      0.900090000000     0.461380000000     0.564150000000    -0.205753   
N23      N      0.394390000000     0.459460000000     0.530160000000    -0.191268   
N24      N      0.111030000000     0.451300000000     0.517780000000    -0.205572   
N25      N      0.086970000000     0.629550000000     0.923510000000    -0.190608   
N26      N      0.042280000000     0.534450000000     0.654340000000    -0.202175   
N27      N      0.040270000000     0.522530000000     0.428800000000    -0.19218    
N28      N      0.052580000000     0.593800000000     0.151850000000    -0.19729    
N29      N      0.923150000000     0.505530000000     0.997740000000    -0.192819   
N30      N      0.656040000000     0.227320000000     0.979990000000    -0.210882   
N31      N      0.154480000000     0.712580000000     0.087080000000    -0.197073   
N32      N      0.441000000000     0.005390000000     0.055430000000    -0.19988    
N33      N      0.922940000000     0.562560000000     0.062010000000    -0.195419   
N34      N      0.646030000000     0.579170000000     0.025070000000    -0.20588    
N35      N      0.437210000000     0.597630000000     0.074090000000    -0.195564   
N36      N      0.141980000000     0.560410000000     0.015820000000    -0.201897   
N37      N      0.923700000000     0.850570000000     0.575920000000    -0.196216   
N38      N      0.621580000000     0.588570000000     0.599750000000    -0.198299   
N39      N      0.418810000000     0.363930000000     0.504270000000    -0.200426   
N40      N      0.150140000000     0.072140000000     0.504770000000    -0.201479   
N41      N      0.650430000000     0.006820000000     0.542640000000    -0.201052   
N42      N      0.914120000000     0.984930000000     0.549590000000    -0.21198    
N43      N      0.128140000000     0.964080000000     0.590140000000    -0.190549   
N44      N      0.386510000000     0.930870000000     0.536800000000    -0.199856   
N45      N      0.038210000000     0.879280000000     0.483770000000    -0.177555   
N46      N      0.045510000000     0.606640000000     0.481170000000    -0.205538   
N47      N      0.003480000000     0.076000000000     0.583840000000    -0.191358   
N48      N      0.023550000000     0.372550000000     0.566990000000    -0.201908   
N49      N      0.045390000000     0.029240000000     0.942730000000    -0.193101   
N50      N      0.058760000000     0.000030000000     0.667790000000    -0.206212   
N51      N      0.067070000000     0.084240000000     0.166360000000    -0.191636   
N52      N      0.045640000000     0.017530000000     0.439300000000    -0.207981   
N53      N      0.675410000000     0.706470000000     0.054760000000    -0.197917   
N54      N      0.968370000000     0.950720000000     0.027370000000    -0.201534   
N55      N      0.418590000000     0.512080000000     0.022890000000    -0.195052   
N56      N      0.169160000000     0.211880000000     0.033730000000    -0.207387   
N57      N      0.957540000000     0.099800000000     0.089660000000    -0.190776   
N58      N      0.675470000000     0.109230000000     0.092280000000    -0.206233   
N59      N      0.181740000000     0.115450000000     0.005340000000    -0.192112   
N60      N      0.464820000000     0.130610000000     0.007860000000    -0.20595    
N61      N      0.066950000000     0.981030000000     0.107980000000    -0.193244   
N62      N      0.077550000000     0.724940000000     0.008110000000    -0.200527   
N63      N      0.034710000000     0.182790000000     0.007320000000    -0.197161   
N64      N      0.042880000000     0.471730000000     0.027420000000    -0.206625   
O1       O      0.061930000000     0.160740000000     0.046480000000    -0.444617   
O2       O      0.032840000000     0.996730000000     0.038600000000    -0.427912   
O3       O      0.035780000000     0.062920000000     0.982140000000    -0.431868   
O4       O      0.985440000000     0.071420000000     0.062020000000    -0.434757   
O5       O      0.075590000000     0.041360000000     0.994630000000    -0.416256   
O6       O      0.023850000000     0.118370000000     0.094510000000    -0.412053   
O7       O      0.989100000000     0.014950000000     0.035830000000    -0.433317   
O8       O      0.030350000000     0.122870000000     0.004790000000    -0.407378   
O9       O      0.089170000000     0.109470000000     0.114780000000    -0.418475   
O10      O      0.132800000000     0.090460000000     0.042090000000    -0.424325   
O11      O      0.111210000000     0.161550000000     0.014770000000    -0.469654   
O12      O      0.028080000000     0.007460000000     0.093700000000    -0.417951   
O13      O      0.090060000000     0.043630000000     0.088480000000    -0.415701   
O14      O      0.129390000000     0.157880000000     0.065840000000    -0.417652   
O15      O      0.027630000000     0.064630000000     0.118880000000    -0.432954   
O16      O      0.120410000000     0.109010000000     0.994050000000    -0.419088   
O17      O      0.060120000000     0.083480000000     0.049420000000    -0.538889   
O18      O      0.056900000000     0.987180000000     0.484420000000    -0.434582   
O19      O      0.000110000000     0.016670000000     0.598730000000    -0.399008   
O20      O      0.954070000000     0.971730000000     0.521110000000    -0.43552    
O21      O      0.090570000000     0.049100000000     0.527230000000    -0.452469   
O22      O      0.944060000000     0.952240000000     0.571770000000    -0.471979   
O23      O      0.111880000000     0.008890000000     0.524620000000    -0.386194   
O24      O      0.042950000000     0.056550000000     0.562850000000    -0.441048   
O25      O      0.003260000000     0.987330000000     0.480440000000    -0.453855   
O26      O      0.066520000000     0.946960000000     0.569310000000    -0.436833   
O27      O      0.979340000000     0.909480000000     0.588700000000    -0.442      
O28      O      0.010320000000     0.916590000000     0.497190000000    -0.408718   
O29      O      0.066420000000     0.029780000000     0.616890000000    -0.437681   
O30      O      0.034400000000     0.967480000000     0.619600000000    -0.467577   
O31      O      0.073810000000     0.937390000000     0.509350000000    -0.438305   
O32      O      0.106370000000     0.008490000000     0.581670000000    -0.403629   
O33      O      0.952870000000     0.902310000000     0.539420000000    -0.430119   
O34      O      0.026590000000     0.982340000000     0.550500000000    -0.581726   
O35      O      0.987230000000     0.555720000000     0.990430000000    -0.407908   
O36      O      0.041010000000     0.658900000000     0.015180000000    -0.425022   
O37      O      0.977410000000     0.557700000000     0.080830000000    -0.410497   
O38      O      0.113010000000     0.637800000000     0.977540000000    -0.398263   
O39      O      0.984980000000     0.600830000000     0.043680000000    -0.451774   
O40      O      0.051620000000     0.614520000000     0.969550000000    -0.431711   
O41      O      0.104530000000     0.685320000000     0.016260000000    -0.422759   
O42      O      0.975460000000     0.516560000000     0.033210000000    -0.428425   
O43      O      0.093850000000     0.571070000000     0.988910000000    -0.409388   
O44      O      0.034470000000     0.614850000000     0.103190000000    -0.405851   
O45      O      0.048810000000     0.523500000000     0.056290000000    -0.43432    
O46      O      0.121160000000     0.648300000000     0.071940000000    -0.440647   
O47      O      0.088390000000     0.677310000000     0.073280000000    -0.421864   
O48      O      0.026750000000     0.516020000000     0.005550000000    -0.458557   
O49      O      0.123370000000     0.601060000000     0.034520000000    -0.458417   
O50      O      0.053310000000     0.571520000000     0.101380000000    -0.433784   
O51      O      0.052080000000     0.596690000000     0.035660000000    -0.523839   
O52      O      0.952600000000     0.434620000000     0.512250000000    -0.419389   
O53      O      0.013480000000     0.550050000000     0.511120000000    -0.450202   
O54      O      0.956100000000     0.467170000000     0.591620000000    -0.418039   
O55      O      0.071320000000     0.520470000000     0.478590000000    -0.42861    
O56      O      0.961740000000     0.501730000000     0.547190000000    -0.465786   
O57      O      0.007710000000     0.486910000000     0.474610000000    -0.421578   
O58      O      0.076700000000     0.577490000000     0.510300000000    -0.432021   
O59      O      0.953960000000     0.411040000000     0.561040000000    -0.421374   
O60      O      0.057980000000     0.456790000000     0.496780000000    -0.428946   
O61      O      0.012670000000     0.530690000000     0.603070000000    -0.443344   
O62      O      0.030560000000     0.431380000000     0.582500000000    -0.424792   
O63      O      0.099010000000     0.549120000000     0.569050000000    -0.446305   
O64      O      0.067180000000     0.580560000000     0.566920000000    -0.439952   
O65      O      0.004980000000     0.408820000000     0.533650000000    -0.448214   
O66      O      0.094070000000     0.493280000000     0.537400000000    -0.454142   
O67      O      0.035600000000     0.491440000000     0.614760000000    -0.430618   
O68      O      0.025270000000     0.493180000000     0.543640000000    -0.527421   
O69      O      0.511130000000     0.132800000000     0.045640000000    -0.415099   
O70      O      0.617440000000     0.066400000000     0.014800000000    -0.455801   
O71      O      0.543410000000     0.089910000000     0.960850000000    -0.439423   
O72      O      0.503510000000     0.037190000000     0.036810000000    -0.424214   
O73      O      0.605700000000     0.105340000000     0.968350000000    -0.458013   
O74      O      0.491670000000     0.065120000000     0.073550000000    -0.435223   
O75      O      0.558400000000     0.026330000000     0.031680000000    -0.433325   
O76      O      0.500200000000     0.099890000000     0.002020000000    -0.435727   
O77      O      0.564760000000     0.092770000000     0.103750000000    -0.431279   
O78      O      0.639730000000     0.171530000000     0.009820000000    -0.475152   
O79      O      0.569080000000     0.175560000000     0.017430000000    -0.422886   
O80      O      0.609260000000     0.077600000000     0.076620000000    -0.411167   
O81      O      0.648020000000     0.133440000000     0.054680000000    -0.46425    
O82      O      0.586580000000     0.165870000000     0.068460000000    -0.380265   
O83      O      0.537740000000     0.029290000000     0.092630000000    -0.394884   
O84      O      0.602600000000     0.166590000000     0.967730000000    -0.445575   
O85      O      0.570020000000     0.104230000000     0.026940000000    -0.59241    
O86      O      0.445590000000     0.965520000000     0.564180000000    -0.450687   
O87      O      0.515730000000     0.925250000000     0.490780000000    -0.429011   
O88      O      0.479140000000     0.020130000000     0.473120000000    -0.372822   
O89      O      0.486980000000     0.903410000000     0.578980000000    -0.456603   
O90      O      0.502080000000     0.980530000000     0.469900000000    -0.489588   
O91      O      0.474690000000     0.939560000000     0.608490000000    -0.447514   
O92      O      0.536420000000     0.914540000000     0.537560000000    -0.497882   
O93      O      0.445330000000     0.955450000000     0.511600000000    -0.408017   
O94      O      0.544860000000     0.015180000000     0.610800000000    -0.440882   
O95      O      0.578390000000     0.035340000000     0.495390000000    -0.461121   
O96      O      0.470480000000     0.028440000000     0.533280000000    -0.378801   
O97      O      0.591710000000     0.981110000000     0.567450000000    -0.476641   
O98      O      0.590550000000     0.980990000000     0.514280000000    -0.432894   
O99      O      0.514300000000     0.042060000000     0.571360000000    -0.444543   
O100     O      0.546330000000     0.961920000000     0.615750000000    -0.477613   
O101     O      0.541260000000     0.054250000000     0.513380000000    -0.438754   
O102     O      0.520050000000     0.979670000000     0.546090000000    -0.534722   
O103     O      0.481050000000     0.556640000000     0.005310000000    -0.410999   
O104     O      0.558530000000     0.682690000000     0.027970000000    -0.477436   
O105     O      0.486860000000     0.585530000000     0.093270000000    -0.431422   
O106     O      0.560060000000     0.594900000000     0.966760000000    -0.483635   
O107     O      0.501640000000     0.635110000000     0.060150000000    -0.44651    
O108     O      0.518720000000     0.532090000000     0.972640000000    -0.407003   
O109     O      0.552690000000     0.655750000000     0.981950000000    -0.415395   
O110     O      0.474660000000     0.532980000000     0.055330000000    -0.463648   
O111     O      0.581280000000     0.561240000000     0.013810000000    -0.43279    
O112     O      0.551960000000     0.639680000000     0.111030000000    -0.459571   
O113     O      0.547120000000     0.536610000000     0.075550000000    -0.438261   
O114     O      0.619630000000     0.683350000000     0.021720000000    -0.452889   
O115     O      0.611940000000     0.675950000000     0.073590000000    -0.42796    
O116     O      0.513050000000     0.510910000000     0.031210000000    -0.39626    
O117     O      0.624370000000     0.622560000000     0.013410000000    -0.455047   
O118     O      0.562350000000     0.591860000000     0.112420000000    -0.45245    
O119     O      0.549840000000     0.604220000000     0.043540000000    -0.546741   
O120     O      0.469700000000     0.426420000000     0.493730000000    -0.425124   
O121     O      0.527600000000     0.559830000000     0.507200000000    -0.448514   
O122     O      0.444130000000     0.456810000000     0.561700000000    -0.428536   
O123     O      0.572630000000     0.535200000000     0.478570000000    -0.440056   
O124     O      0.459880000000     0.506580000000     0.527270000000    -0.428738   
O125     O      0.517630000000     0.486340000000     0.464000000000    -0.433106   
O126     O      0.589380000000     0.583270000000     0.520350000000    -0.386706   
O127     O      0.461230000000     0.405850000000     0.543870000000    -0.470576   
O128     O      0.584870000000     0.485300000000     0.501860000000    -0.458401   
O129     O      0.486970000000     0.519190000000     0.590190000000    -0.43663    
O130     O      0.531130000000     0.438770000000     0.579890000000    -0.457413   
O131     O      0.589910000000     0.531510000000     0.571150000000    -0.434154   
O132     O      0.560840000000     0.566480000000     0.572850000000    -0.424358   
O133     O      0.530910000000     0.423620000000     0.529240000000    -0.463226   
O134     O      0.629480000000     0.545290000000     0.518470000000    -0.413618   
O135     O      0.516220000000     0.487510000000     0.603330000000    -0.474001   
O136     O      0.521140000000     0.493230000000     0.534750000000    -0.588763   
O137     O      0.464240000000     0.571030000000     0.607820000000    -0.155501   
O138     O      0.413420000000     0.492410000000     0.613570000000    -0.251658   
O139     O      0.416380000000     0.542340000000     0.658460000000    -0.174763   
O140     O      0.580620000000     0.711100000000     0.136150000000    -0.143777   
O141     O      0.503760000000     0.655950000000     0.144480000000    -0.245892   
O142     O      0.547450000000     0.707350000000     0.192560000000    -0.169091   
O143     O      0.497050000000     0.860110000000     0.397350000000    -0.172475   
O144     O      0.465480000000     0.882570000000     0.442720000000    -0.248025   
O145     O      0.541370000000     0.930940000000     0.424800000000    -0.18081    
O146     O      0.415940000000     0.044280000000     0.499900000000    -0.142237   
O147     O      0.399050000000     0.012480000000     0.561480000000    -0.257125   
O148     O      0.380220000000     0.067320000000     0.539940000000    -0.179601   
O149     O      0.618650000000     0.079240000000     0.612110000000    -0.150985   
O150     O      0.564390000000     0.091590000000     0.639180000000    -0.261946   
O151     O      0.638280000000     0.121620000000     0.666940000000    -0.179893   
O152     O      0.470970000000     0.961720000000     0.110710000000    -0.15023    
O153     O      0.543270000000     0.968100000000     0.117440000000    -0.242346   
O154     O      0.488040000000     0.926750000000     0.162050000000    -0.17355    
O155     O      0.588730000000     0.684650000000     0.921430000000    -0.171003   
O156     O      0.508890000000     0.644660000000     0.925510000000    -0.235923   
O157     O      0.544350000000     0.704170000000     0.880960000000    -0.17519    
O158     O      0.588110000000     0.187410000000     0.132880000000    -0.163462   
O159     O      0.656400000000     0.209840000000     0.103010000000    -0.243495   
O160     O      0.651430000000     0.258690000000     0.144480000000    -0.174836   
O161     O      0.933900000000     0.336820000000     0.581130000000    -0.15938    
O162     O      0.913910000000     0.380730000000     0.615860000000    -0.270734   
O163     O      0.864820000000     0.302350000000     0.610080000000    -0.180677   
O164     O      0.464850000000     0.826990000000     0.554780000000    -0.16167    
O165     O      0.507900000000     0.855670000000     0.612500000000    -0.274432   
O166     O      0.451250000000     0.778830000000     0.607560000000    -0.175352   
O167     O      0.566300000000     0.417200000000     0.465860000000    -0.175879   
O168     O      0.608330000000     0.487800000000     0.434890000000    -0.260801   
O169     O      0.627300000000     0.430950000000     0.430400000000    -0.175895   
O170     O      0.443490000000     0.509390000000     0.462990000000    -0.128601   
O171     O      0.385090000000     0.525880000000     0.450720000000    -0.269079   
O172     O      0.436680000000     0.557770000000     0.503070000000    -0.168016   
O173     O      0.173040000000     0.703120000000     0.948450000000    -0.15779    
O174     O      0.176670000000     0.636070000000     0.953200000000    -0.257734   
O175     O      0.203690000000     0.684850000000     0.900020000000    -0.17682    
O176     O      0.950980000000     0.436140000000     0.431620000000    -0.166356   
O177     O      0.948910000000     0.499380000000     0.452640000000    -0.240986   
O178     O      0.924710000000     0.473860000000     0.390370000000    -0.179487   
O179     O      0.955230000000     0.584660000000     0.943660000000    -0.148649   
O180     O      0.972760000000     0.529200000000     0.927770000000    -0.278386   
O181     O      0.909000000000     0.530100000000     0.899260000000    -0.183079   
O182     O      0.081350000000     0.741200000000     0.088080000000    -0.174669   
O183     O      0.093730000000     0.703370000000     0.140930000000    -0.266406   
O184     O      0.129780000000     0.782970000000     0.138740000000    -0.180998   
O185     O      0.924420000000     0.492060000000     0.114380000000    -0.175505   
O186     O      0.952070000000     0.563470000000     0.141690000000    -0.263347   
O187     O      0.876750000000     0.504930000000     0.149670000000    -0.177449   
O188     O      0.492210000000     0.692910000000     0.078910000000    -0.144926   
O189     O      0.475160000000     0.678600000000     0.013270000000    -0.253843   
O190     O      0.430460000000     0.695330000000     0.049420000000    -0.173627   
O191     O      0.898990000000     0.859340000000     0.490790000000    -0.152207   
O192     O      0.953830000000     0.837910000000     0.508010000000    -0.250398   
O193     O      0.877590000000     0.783010000000     0.493790000000    -0.173636   
O194     O      0.416160000000     0.427210000000     0.448060000000    -0.134516   
O195     O      0.467310000000     0.404660000000     0.430810000000    -0.250565   
O196     O      0.392360000000     0.369630000000     0.404670000000    -0.17466    
O197     O      0.618250000000     0.944700000000     0.478490000000    -0.16373    
O198     O      0.629330000000     0.016630000000     0.459290000000    -0.266322   
O199     O      0.685520000000     0.998080000000     0.450910000000    -0.175965   
O200     O      0.184600000000     0.070020000000     0.584850000000    -0.166643   
O201     O      0.148840000000     0.033610000000     0.641350000000    -0.263068   
O202     O      0.225520000000     0.056340000000     0.633840000000    -0.178648   
O203     O      0.029540000000     0.930740000000     0.422320000000    -0.167964   
O204     O      0.984270000000     0.861730000000     0.390900000000    -0.273479   
O205     O      0.957190000000     0.878990000000     0.443310000000    -0.148483   
O206     O      0.956070000000     0.010840000000     0.647720000000    -0.170422   
O207     O      0.032780000000     0.065260000000     0.661160000000    -0.261034   
O208     O      0.974220000000     0.075980000000     0.679610000000    -0.181218   
O209     O      0.133730000000     0.030930000000     0.969390000000    -0.150006   
O210     O      0.065270000000     0.968930000000     0.990760000000    -0.254291   
O211     O      0.099190000000     0.962750000000     0.937600000000    -0.179086   
O212     O      0.150780000000     0.098990000000     0.136540000000    -0.120195   
O213     O      0.154750000000     0.168870000000     0.144680000000    -0.249439   
O214     O      0.187140000000     0.140430000000     0.190840000000    -0.171948   
O215     O      0.643590000000     0.632540000000     0.108860000000    -0.150686   
O216     O      0.705840000000     0.680790000000     0.148520000000    -0.271455   
O217     O      0.646140000000     0.695570000000     0.135080000000    -0.153086   
O218     O      0.439370000000     0.591760000000     0.980120000000    -0.148384   
O219     O      0.447840000000     0.543300000000     0.940580000000    -0.241734   
O220     O      0.379780000000     0.545230000000     0.938080000000    -0.17951    
O221     O      0.026790000000     0.150610000000     0.152570000000    -0.160372   
O222     O      0.034810000000     0.192580000000     0.095650000000    -0.260107   
O223     O      0.996990000000     0.198640000000     0.146130000000    -0.178577   
O224     O      0.139930000000     0.026870000000     0.039810000000    -0.188445   
O225     O      0.213950000000     0.041820000000     0.056180000000    -0.274269   
O226     O      0.184400000000     0.079800000000     0.087030000000    -0.144797   
O227     O      0.002440000000     0.967960000000     0.157360000000    -0.167866   
O228     O      0.958740000000     0.933740000000     0.101520000000    -0.271372   
O229     O      0.971700000000     0.890200000000     0.148780000000    -0.175751   
O230     O      0.954840000000     0.096390000000     0.004400000000    -0.139588   
O231     O      0.925720000000     0.137830000000     0.030630000000    -0.272745   
O232     O      0.929660000000     0.136150000000     0.964740000000    -0.174586   
S1       S      0.443340000000     0.533770000000     0.634320000000     0.273475   
S2       S      0.548900000000     0.680700000000     0.163140000000     0.279621   
S3       S      0.507000000000     0.884800000000     0.431720000000     0.278722   
S4       S      0.413540000000     0.053650000000     0.538540000000     0.270099   
S5       S      0.602110000000     0.083500000000     0.647100000000     0.272861   
S6       S      0.506400000000     0.966210000000     0.137590000000     0.279319   
S7       S      0.548880000000     0.688860000000     0.918700000000     0.27391    
S8       S      0.626780000000     0.225070000000     0.116070000000     0.274451   
S9       S      0.896920000000     0.342700000000     0.590400000000     0.273971   
S10      S      0.463370000000     0.824050000000     0.595330000000     0.274741   
S11      S      0.611060000000     0.451070000000     0.455210000000     0.274179   
S12      S      0.411820000000     0.517760000000     0.480670000000     0.279092   
S13      S      0.169110000000     0.666400000000     0.927380000000     0.273538   
S14      S      0.957440000000     0.479900000000     0.420640000000     0.275914   
S15      S      0.936160000000     0.538040000000     0.933960000000     0.271603   
S16      S      0.114570000000     0.743480000000     0.116370000000     0.27131    
S17      S      0.912710000000     0.525160000000     0.123550000000     0.272659   
S18      S      0.456200000000     0.672620000000     0.050190000000     0.278315   
S19      S      0.906780000000     0.826220000000     0.510910000000     0.276788   
S20      S      0.420150000000     0.389140000000     0.438520000000     0.275016   
S21      S      0.651200000000     0.992180000000     0.475760000000     0.276146   
S22      S      0.181640000000     0.038500000000     0.614460000000     0.27438    
S23      S      0.996990000000     0.883540000000     0.427620000000     0.273527   
S24      S      0.988000000000     0.058460000000     0.650340000000     0.27197    
S25      S      0.090660000000     0.993020000000     0.957590000000     0.275651   
S26      S      0.149520000000     0.127900000000     0.163820000000     0.277104   
S27      S      0.672510000000     0.678880000000     0.119490000000     0.270256   
S28      S      0.416180000000     0.548060000000     0.962900000000     0.273781   
S29      S      0.004800000000     0.167730000000     0.126370000000     0.273131   
S30      S      0.184940000000     0.061750000000     0.051450000000     0.276782   
S31      S      0.991560000000     0.933800000000     0.130040000000     0.273161   
S32      S      0.952530000000     0.137040000000     0.000580000000     0.261472   


