data_structure

_audit_creation_method RASPA-1.0
_audit_creation_date 2023-6-4
_audit_author_name 'Poobodin Mano'

_cell_length_a    31.9412
_cell_length_b    31.333
_cell_length_c    32.6176
_cell_angle_alpha 87.1384
_cell_angle_beta  93.8159
_cell_angle_gamma 120.435
_cell_volume      28078.5

_symmetry_cell_setting          triclinic
_symmetry_space_group_name_Hall 'P 1'
_symmetry_space_group_name_H-M  'P 1'
_symmetry_Int_Tables_number     1

_symmetry_equiv_pos_as_xyz 'x,y,z'

loop_
_atom_site_label
_atom_site_type_symbol
_atom_site_fract_x
_atom_site_fract_y
_atom_site_fract_z
_atom_site_charge
C1       C      0.065300000000     0.171110000000     0.980150000000     0.449306   
C2       C      0.955460000000     0.937250000000     0.982480000000     0.473275   
C3       C      0.055300000000     0.049590000000     0.917600000000     0.464029   
C4       C      0.921550000000     0.021800000000     0.040300000000     0.473307   
C5       C      0.020010000000     0.055620000000     0.111630000000     0.479597   
C6       C      0.163520000000     0.090650000000     0.989820000000     0.406602   
C7       C      0.115820000000     0.141300000000     0.065790000000     0.469271   
C8       C      0.022750000000     0.942320000000     0.069790000000     0.398553   
C9       C      0.028430000000     0.069720000000     0.411500000000     0.48653    
C10      C      0.033690000000     0.172510000000     0.558600000000     0.473151   
C11      C      0.913860000000     0.036440000000     0.477830000000     0.46138    
C12      C      0.143140000000     0.168660000000     0.493960000000     0.487665   
C13      C      0.131310000000     0.058630000000     0.545250000000     0.479294   
C14      C      0.941570000000     0.972400000000     0.555720000000     0.464611   
C15      C      0.992810000000     0.949390000000     0.454270000000     0.406997   
C16      C      0.023980000000     0.067630000000     0.618200000000     0.48247    
C17      C      0.965590000000     0.437380000000     0.017510000000     0.474675   
C18      C      0.077740000000     0.669430000000     0.030830000000     0.444434   
C19      C      0.933470000000     0.532840000000     0.078660000000     0.531055   
C20      C      0.066310000000     0.568880000000     0.961120000000     0.495915   
C21      C      0.144410000000     0.527840000000     0.010410000000     0.420892   
C22      C      0.024070000000     0.541580000000     0.161070000000     0.488849   
C23      C      0.061910000000     0.452360000000     0.090230000000     0.474182   
C24      C      0.141570000000     0.644820000000     0.111910000000     0.44327    
C25      C      0.945020000000     0.468190000000     0.512370000000     0.483503   
C26      C      0.019970000000     0.667110000000     0.517800000000     0.515007   
C27      C      0.938160000000     0.566290000000     0.604880000000     0.523558   
C28      C      0.045200000000     0.542720000000     0.462580000000     0.460872   
C29      C      0.135080000000     0.585100000000     0.549990000000     0.477106   
C30      C      0.037400000000     0.562640000000     0.660440000000     0.540687   
C31      C      0.981040000000     0.437030000000     0.604640000000     0.395482   
C32      C      0.134210000000     0.684020000000     0.568860000000     0.517787   
C33      C      0.458500000000     0.067760000000     0.028320000000     0.464106   
C34      C      0.556830000000     0.948410000000     0.994700000000     0.470327   
C35      C      0.570320000000     0.046410000000     0.940770000000     0.459344   
C36      C      0.436040000000     0.960330000000     0.075560000000     0.454846   
C37      C      0.543210000000     0.004020000000     0.143600000000     0.456853   
C38      C      0.650020000000     0.145750000000     0.008640000000     0.445341   
C39      C      0.578530000000     0.156990000000     0.064130000000     0.468691   
C40      C      0.618990000000     0.996650000000     0.089330000000     0.450927   
C41      C      0.425770000000     0.042600000000     0.510490000000     0.498859   
C42      C      0.532750000000     0.967580000000     0.494670000000     0.467774   
C43      C      0.554870000000     0.067670000000     0.435260000000     0.471024   
C44      C      0.464570000000     0.939510000000     0.602500000000     0.428999   
C45      C      0.550750000000     0.059720000000     0.640960000000     0.468689   
C46      C      0.637800000000     0.171740000000     0.502120000000     0.477168   
C47      C      0.509630000000     0.152400000000     0.557210000000     0.48442    
C48      C      0.624940000000     0.025890000000     0.571140000000     0.442928   
C49      C      0.441050000000     0.406800000000     0.058210000000     0.415248   
C50      C      0.557830000000     0.643020000000     0.002710000000     0.469053   
C51      C      0.450380000000     0.525630000000     0.067140000000     0.481227   
C52      C      0.542020000000     0.536490000000     0.941760000000     0.462242   
C53      C      0.627460000000     0.509450000000     0.998290000000     0.478435   
C54      C      0.546680000000     0.542350000000     0.145650000000     0.484006   
C55      C      0.563050000000     0.440560000000     0.075030000000     0.472063   
C56      C      0.653860000000     0.652200000000     0.069030000000     0.477271   
C57      C      0.438870000000     0.474550000000     0.488700000000     0.464169   
C58      C      0.538220000000     0.664900000000     0.496300000000     0.48175    
C59      C      0.411120000000     0.543590000000     0.578800000000     0.430732   
C60      C      0.555050000000     0.545470000000     0.445820000000     0.490222   
C61      C      0.633290000000     0.552550000000     0.538330000000     0.52415    
C62      C      0.515770000000     0.559930000000     0.640020000000     0.493418   
C63      C      0.474830000000     0.439200000000     0.583990000000     0.462765   
C64      C      0.631530000000     0.673860000000     0.572570000000     0.500356   
C65      C      0.497630000000     0.508810000000     0.701510000000     0.247141   
C66      C      0.549400000000     0.596240000000     0.704610000000     0.0878655  
C67      C      0.500000000000     0.505740000000     0.744880000000    -0.15848    
C68      C      0.488940000000     0.512280000000     0.836190000000    -0.0795677  
C69      C      0.551700000000     0.594060000000     0.747320000000    -0.105752   
C70      C      0.529160000000     0.546090000000     0.813850000000     0.0239382  
C71      C      0.526520000000     0.548590000000     0.768120000000     0.0687449  
C72      C      0.493140000000     0.510230000000     0.879180000000     0.0711124  
C73      C      0.575220000000     0.575270000000     0.878330000000     0.0745649  
C74      C      0.572470000000     0.577920000000     0.835660000000    -0.0825687  
C75      C      0.549050000000     0.497620000000     0.387380000000     0.241575   
C76      C      0.551750000000     0.574850000000     0.378430000000     0.0853945  
C77      C      0.549200000000     0.494740000000     0.344190000000    -0.159984   
C78      C      0.522120000000     0.491250000000     0.250570000000    -0.0806049  
C79      C      0.552060000000     0.572800000000     0.336190000000    -0.107939   
C80      C      0.554300000000     0.532970000000     0.273430000000     0.0241637  
C81      C      0.551870000000     0.533160000000     0.318570000000     0.0683471  
C82      C      0.520910000000     0.494580000000     0.207650000000     0.0764958  
C83      C      0.584350000000     0.578530000000     0.209810000000     0.0762618  
C84      C      0.586570000000     0.576460000000     0.252560000000    -0.0813864  
C85      C      0.559900000000     0.924730000000     0.454440000000     0.241238   
C86      C      0.487300000000     0.880060000000     0.490590000000     0.0873173  
C87      C      0.558650000000     0.879940000000     0.447270000000    -0.159152   
C88      C      0.571810000000     0.791370000000     0.464250000000    -0.0803449  
C89      C      0.486020000000     0.835600000000     0.484820000000    -0.103842   
C90      C      0.526540000000     0.788990000000     0.464200000000     0.0223117  
C91      C      0.523090000000     0.835070000000     0.464420000000     0.0658606  
C92      C      0.574830000000     0.748440000000     0.471290000000     0.0706248  
C93      C      0.489540000000     0.700440000000     0.476670000000     0.0700522  
C94      C      0.484970000000     0.742010000000     0.468140000000    -0.0814007  
C95      C      0.503320000000     0.387650000000     0.614250000000     0.241259   
C96      C      0.430930000000     0.352510000000     0.571300000000     0.0811518  
C97      C      0.505490000000     0.344160000000     0.611950000000    -0.162167   
C98      C      0.521130000000     0.274790000000     0.558750000000    -0.0830072  
C99      C      0.432070000000     0.308470000000     0.568890000000    -0.105703   
C100     C      0.479750000000     0.264400000000     0.579220000000     0.0222162  
C101     C      0.471160000000     0.305280000000     0.587670000000     0.0655821  
C102     C      0.530810000000     0.237030000000     0.552000000000     0.0704504  
C103     C      0.460440000000     0.179160000000     0.586680000000     0.0705013  
C104     C      0.449070000000     0.215990000000     0.593150000000    -0.0831559  
C105     C      0.530230000000     0.033000000000     0.873570000000     0.23806    
C106     C      0.614870000000     0.061060000000     0.880640000000     0.08134    
C107     C      0.533740000000     0.040220000000     0.830670000000    -0.158923   
C108     C      0.560110000000     0.093960000000     0.747940000000    -0.0810638  
C109     C      0.618830000000     0.067510000000     0.837880000000    -0.104499   
C110     C      0.580870000000     0.067680000000     0.767320000000     0.0226613  
C111     C      0.578250000000     0.058640000000     0.812590000000     0.0664224  
C112     C      0.554260000000     0.094680000000     0.705120000000     0.0709494  
C113     C      0.592210000000     0.047070000000     0.699810000000     0.0721888  
C114     C      0.599170000000     0.046090000000     0.742720000000    -0.0795129  
C115     C      0.509420000000     0.963730000000     0.208260000000     0.236386   
C116     C      0.583360000000     0.041000000000     0.206170000000     0.0790108  
C117     C      0.509390000000     0.968410000000     0.251410000000    -0.157034   
C118     C      0.589210000000     0.036830000000     0.340830000000    -0.0819345  
C119     C      0.584610000000     0.045820000000     0.248390000000    -0.105097   
C120     C      0.546440000000     0.019030000000     0.315980000000     0.0236266  
C121     C      0.546800000000     0.010240000000     0.271520000000     0.063594   
C122     C      0.591010000000     0.052220000000     0.380670000000     0.0790038  
C123     C      0.508550000000     0.031340000000     0.372940000000     0.0708984  
C124     C      0.505440000000     0.015350000000     0.332800000000    -0.0802086  
C125     C      0.513020000000     0.866500000000     0.966370000000     0.236474   
C126     C      0.598340000000     0.906280000000     0.980450000000     0.0822301  
C127     C      0.512320000000     0.822030000000     0.958780000000    -0.156461   
C128     C      0.512080000000     0.727950000000     0.982090000000    -0.0809488  
C129     C      0.598330000000     0.862560000000     0.973990000000    -0.104506   
C130     C      0.552580000000     0.769900000000     0.966330000000     0.0236935  
C131     C      0.554700000000     0.818940000000     0.964750000000     0.0646202  
C132     C      0.513320000000     0.684620000000     0.990860000000     0.0728442  
C133     C      0.592410000000     0.720850000000     0.966080000000     0.07294    
C134     C      0.592360000000     0.765130000000     0.956690000000    -0.0808007  
C135     C      0.620980000000     0.421450000000     0.107700000000     0.238449   
C136     C      0.539820000000     0.358440000000     0.090330000000     0.0905594  
C137     C      0.634900000000     0.384930000000     0.112410000000    -0.160561   
C138     C      0.612000000000     0.264280000000     0.126730000000    -0.0825538  
C139     C      0.551920000000     0.321970000000     0.096480000000    -0.108756   
C140     C      0.613420000000     0.297850000000     0.096160000000     0.0215279  
C141     C      0.600290000000     0.335230000000     0.104720000000     0.0664954  
C142     C      0.605070000000     0.218430000000     0.115430000000     0.0713842  
C143     C      0.603510000000     0.240070000000     0.044880000000     0.0732611  
C144     C      0.612290000000     0.286650000000     0.055000000000    -0.0835863  
C145     C      0.900270000000     0.393550000000     0.473930000000     0.242664   
C146     C      0.861470000000     0.436210000000     0.494670000000     0.0884826  
C147     C      0.854400000000     0.351340000000     0.465900000000    -0.161563   
C148     C      0.766190000000     0.267130000000     0.505500000000    -0.0830352  
C149     C      0.815690000000     0.395110000000     0.486440000000    -0.105775   
C150     C      0.766100000000     0.303700000000     0.479280000000     0.0235439  
C151     C      0.812060000000     0.351140000000     0.474740000000     0.0679848  
C152     C      0.722830000000     0.223870000000     0.513210000000     0.0724234  
C153     C      0.678930000000     0.251150000000     0.468630000000     0.0728847  
C154     C      0.721870000000     0.295780000000     0.460980000000    -0.0829418  
C155     C      0.215050000000     0.738770000000     0.546110000000     0.249636   
C156     C      0.200590000000     0.718840000000     0.617240000000     0.0885555  
C157     C      0.264920000000     0.769360000000     0.556380000000    -0.165267   
C158     C      0.371220000000     0.810010000000     0.600700000000    -0.0812769  
C159     C      0.249400000000     0.749380000000     0.627990000000    -0.112363   
C160     C      0.331070000000     0.814230000000     0.608600000000     0.0228026  
C161     C      0.281700000000     0.775120000000     0.597470000000     0.0715688  
C162     C      0.417540000000     0.851870000000     0.603750000000     0.0729171  
C163     C      0.384290000000     0.899880000000     0.624180000000     0.07999    
C164     C      0.337910000000     0.858700000000     0.622660000000    -0.0821887  
C165     C      0.677900000000     0.530750000000     0.588410000000     0.249658   
C166     C      0.718290000000     0.588870000000     0.534220000000     0.095264   
C167     C      0.721940000000     0.534610000000     0.602540000000    -0.167145   
C168     C      0.808480000000     0.520620000000     0.598990000000    -0.0826376  
C169     C      0.762450000000     0.593480000000     0.548090000000    -0.113593   
C170     C      0.808790000000     0.565400000000     0.594590000000     0.022619   
C171     C      0.764000000000     0.565350000000     0.582040000000     0.0728782  
C172     C      0.852190000000     0.521290000000     0.605520000000     0.0772827  
C173     C      0.895190000000     0.609200000000     0.607170000000     0.0768633  
C174     C      0.852270000000     0.609930000000     0.600210000000    -0.0825296  
C175     C      0.218770000000     0.622510000000     0.532760000000     0.244903   
C176     C      0.191800000000     0.581840000000     0.597400000000     0.0890159  
C177     C      0.262360000000     0.621610000000     0.540190000000    -0.161497   
C178     C      0.354650000000     0.619740000000     0.576080000000    -0.084728   
C179     C      0.234010000000     0.580270000000     0.605280000000    -0.109429   
C180     C      0.305940000000     0.583700000000     0.578810000000     0.0237989  
C181     C      0.268080000000     0.597180000000     0.575340000000     0.0694671  
C182     C      0.389460000000     0.605490000000     0.577960000000     0.0755417  
C183     C      0.328600000000     0.520750000000     0.584840000000     0.0729722  
C184     C      0.292870000000     0.533840000000     0.583890000000    -0.0811196  
C185     C      0.094150000000     0.611870000000     0.896930000000     0.245748   
C186     C      0.023430000000     0.531710000000     0.899010000000     0.0935127  
C187     C      0.093560000000     0.608710000000     0.854070000000    -0.15986    
C188     C      0.072420000000     0.608200000000     0.764370000000    -0.0863034  
C189     C      0.021110000000     0.528680000000     0.856400000000    -0.101204   
C190     C      0.055710000000     0.564580000000     0.787820000000     0.0271451  
C191     C      0.057150000000     0.566840000000     0.833380000000     0.0682021  
C192     C      0.069180000000     0.606530000000     0.721980000000     0.0804333  
C193     C      0.032930000000     0.519160000000     0.724050000000     0.0765284  
C194     C      0.036880000000     0.519610000000     0.767150000000    -0.0820477  
C195     C      0.072730000000     0.525860000000     0.401440000000     0.243418   
C196     C      0.020760000000     0.559960000000     0.397190000000     0.0843497  
C197     C      0.073390000000     0.527820000000     0.357990000000    -0.157677   
C198     C      0.040840000000     0.507380000000     0.267320000000    -0.0819946  
C199     C      0.020870000000     0.562140000000     0.354660000000    -0.102855   
C200     C      0.045890000000     0.547350000000     0.288780000000     0.0251152  
C201     C      0.047480000000     0.546330000000     0.334410000000     0.0662876  
C202     C      0.034270000000     0.506530000000     0.224620000000     0.0744261  
C203     C      0.038910000000     0.584540000000     0.223520000000     0.0740958  
C204     C      0.045780000000     0.586680000000     0.266270000000    -0.0821478  
C205     C      0.886020000000     0.400620000000     0.986690000000     0.241872   
C206     C      0.925980000000     0.353920000000     0.995770000000     0.082902   
C207     C      0.841170000000     0.356970000000     0.979490000000    -0.160651   
C208     C      0.749080000000     0.257620000000     0.961100000000    -0.0812439  
C209     C      0.881460000000     0.309730000000     0.989620000000    -0.104862   
C210     C      0.789350000000     0.265170000000     0.986740000000     0.0225843  
C211     C      0.838030000000     0.310870000000     0.983420000000     0.0655181  
C212     C      0.702520000000     0.217430000000     0.968550000000     0.0687502  
C213     C      0.734700000000     0.192490000000     0.026180000000     0.0670362  
C214     C      0.781520000000     0.231550000000     0.019260000000    -0.0827014  
C215     C      0.363730000000     0.884270000000     0.056930000000     0.236347   
C216     C      0.373500000000     0.916380000000     0.123620000000     0.0826762  
C217     C      0.322750000000     0.839680000000     0.069300000000    -0.157842   
C218     C      0.269600000000     0.740750000000     0.116280000000    -0.080659   
C219     C      0.332090000000     0.872390000000     0.136340000000    -0.103017   
C220     C      0.266580000000     0.783120000000     0.121960000000     0.0218872  
C221     C      0.307440000000     0.832700000000     0.109430000000     0.0648578  
C222     C      0.228010000000     0.693720000000     0.118030000000     0.0675726  
C223     C      0.181000000000     0.728630000000     0.134980000000     0.0690058  
C224     C      0.222230000000     0.776550000000     0.133740000000    -0.0807733  
C225     C      0.880140000000     0.563460000000     0.059410000000     0.249038   
C226     C      0.849090000000     0.476650000000     0.064320000000     0.0914092  
C227     C      0.834690000000     0.554830000000     0.043220000000    -0.161233   
C228     C      0.749950000000     0.537750000000     0.989700000000    -0.0803132  
C229     C      0.803900000000     0.467240000000     0.046590000000    -0.10755    
C230     C      0.749690000000     0.499490000000     0.014330000000     0.022896   
C231     C      0.796560000000     0.506730000000     0.034540000000     0.0681376  
C232     C      0.706920000000     0.537920000000     0.980390000000     0.0790215  
C233     C      0.661100000000     0.457640000000     0.009600000000     0.0753843  
C234     C      0.704130000000     0.457420000000     0.021880000000    -0.0778586  
C235     C      0.187900000000     0.485090000000     0.997830000000     0.235302   
C236     C      0.229150000000     0.566260000000     0.024340000000     0.0847045  
C237     C      0.230660000000     0.482090000000     0.006270000000    -0.158318   
C238     C      0.331370000000     0.490730000000     0.016360000000    -0.0788326  
C239     C      0.271750000000     0.564860000000     0.031500000000    -0.10523    
C240     C      0.317430000000     0.519080000000     0.037580000000     0.0223053  
C241     C      0.272640000000     0.521650000000     0.024840000000     0.0646745  
C242     C      0.375120000000     0.491940000000     0.027650000000     0.069954   
C243     C      0.391760000000     0.548000000000     0.080720000000     0.0729588  
C244     C      0.347840000000     0.546640000000     0.071020000000    -0.0814158  
C245     C      0.715000000000     0.709010000000     0.594680000000     0.241207   
C246     C      0.679440000000     0.759880000000     0.586130000000     0.0826124  
C247     C      0.761560000000     0.751420000000     0.598620000000    -0.160642   
C248     C      0.853860000000     0.840950000000     0.570940000000    -0.0804979  
C249     C      0.725440000000     0.802580000000     0.589230000000    -0.104817   
C250     C      0.817090000000     0.843320000000     0.590460000000     0.0231591  
C251     C      0.767490000000     0.798730000000     0.593770000000     0.0656691  
C252     C      0.897650000000     0.884290000000     0.562700000000     0.0749599  
C253     C      0.871070000000     0.931980000000     0.594760000000     0.0725838  
C254     C      0.827280000000     0.889480000000     0.603960000000    -0.0826082  
C255     C      0.211680000000     0.214310000000     0.450580000000     0.24008    
C256     C      0.187800000000     0.256220000000     0.493910000000     0.0855867  
C257     C      0.252350000000     0.260430000000     0.439580000000    -0.157974   
C258     C      0.352050000000     0.352150000000     0.450680000000    -0.0806564  
C259     C      0.227600000000     0.301710000000     0.483820000000    -0.104125   
C260     C      0.308380000000     0.352220000000     0.452550000000     0.0243055  
C261     C      0.261450000000     0.304520000000     0.457220000000     0.06662    
C262     C      0.396350000000     0.395610000000     0.457930000000     0.0736806  
C263     C      0.356210000000     0.440800000000     0.464330000000     0.0760439  
C264     C      0.311160000000     0.398150000000     0.456340000000    -0.0794756  
C265     C      0.861600000000     0.070050000000     0.477980000000     0.234985   
C266     C      0.832260000000     0.985530000000     0.496720000000     0.0843323  
C267     C      0.819220000000     0.066300000000     0.492150000000    -0.162099   
C268     C      0.697390000000     0.978030000000     0.532090000000    -0.080844   
C269     C      0.790570000000     0.981350000000     0.512050000000    -0.106622   
C270     C      0.743270000000     0.021140000000     0.531440000000     0.0209006  
C271     C      0.784570000000     0.022630000000     0.511420000000     0.0649212  
C272     C      0.658660000000     0.979060000000     0.548600000000     0.0742944  
C273     C      0.709820000000     0.063660000000     0.565050000000     0.0642629  
C274     C      0.749490000000     0.063610000000     0.549890000000    -0.0822106  
C275     C      0.341300000000     0.997170000000     0.526340000000     0.238064   
C276     C      0.375240000000     0.076970000000     0.494330000000     0.0844624  
C277     C      0.298570000000     0.998330000000     0.532860000000    -0.159982   
C278     C      0.205050000000     0.004050000000     0.523310000000    -0.0818568  
C279     C      0.333670000000     0.079170000000     0.501040000000    -0.107659   
C280     C      0.252160000000     0.043610000000     0.531210000000     0.0226511  
C281     C      0.295330000000     0.040280000000     0.521610000000     0.0658933  
C282     C      0.164960000000     0.009000000000     0.530020000000     0.069443   
C283     C      0.216690000000     0.090120000000     0.554840000000     0.0747563  
C284     C      0.257680000000     0.086680000000     0.547900000000    -0.0814519  
C285     C      0.996680000000     0.727650000000     0.525470000000     0.24588    
C286     C      0.001700000000     0.703270000000     0.458690000000     0.0925987  
C287     C      0.988110000000     0.764320000000     0.507600000000    -0.168013   
C288     C      0.944810000000     0.816930000000     0.446540000000    -0.0795333  
C289     C      0.994330000000     0.740350000000     0.440360000000    -0.115194   
C290     C      0.987990000000     0.815760000000     0.448570000000     0.0169006  
C291     C      0.988490000000     0.771680000000     0.465160000000     0.0736502  
C292     C      0.946810000000     0.862500000000     0.444530000000     0.0693814  
C293     C      0.032920000000     0.904830000000     0.443740000000     0.0739513  
C294     C      0.032180000000     0.859950000000     0.445000000000    -0.0772215  
C295     C      0.038610000000     0.225190000000     0.612520000000     0.239456   
C296     C      0.989200000000     0.214390000000     0.551610000000     0.0746288  
C297     C      0.023350000000     0.256320000000     0.627800000000    -0.15559    
C298     C      0.020960000000     0.350520000000     0.633070000000    -0.0765008  
C299     C      0.974070000000     0.245310000000     0.565970000000    -0.102539   
C300     C      0.982350000000     0.307040000000     0.616400000000     0.0200762  
C301     C      0.991510000000     0.267310000000     0.604250000000     0.0627704  
C302     C      0.017320000000     0.392800000000     0.633660000000     0.0734594  
C303     C      0.935560000000     0.348990000000     0.607720000000     0.0683651  
C304     C      0.938130000000     0.305630000000     0.606010000000    -0.0775538  
C305     C      0.043590000000     0.034160000000     0.679300000000     0.243123   
C306     C      0.990920000000     0.066980000000     0.681540000000     0.0840571  
C307     C      0.043550000000     0.028550000000     0.722410000000    -0.161206   
C308     C      0.020510000000     0.002610000000     0.812700000000    -0.0796286  
C309     C      0.991020000000     0.062430000000     0.724410000000    -0.109745   
C310     C      0.023620000000     0.043720000000     0.790920000000     0.0223809  
C311     C      0.018440000000     0.044080000000     0.745330000000     0.0718029  
C312     C      0.030280000000     0.004820000000     0.855210000000     0.071029   
C313     C      0.045760000000     0.087260000000     0.855180000000     0.0746556  
C314     C      0.035590000000     0.086060000000     0.812770000000    -0.0787654  
C315     C      0.989050000000     0.070260000000     0.170930000000     0.243929   
C316     C      0.047470000000     0.044110000000     0.178710000000     0.0851986  
C317     C      0.990310000000     0.074360000000     0.213730000000    -0.165262   
C318     C      0.979570000000     0.049880000000     0.305420000000    -0.0824863  
C319     C      0.049600000000     0.048560000000     0.221440000000    -0.104279   
C320     C      0.022560000000     0.069960000000     0.284200000000     0.0258655  
C321     C      0.020960000000     0.064170000000     0.239200000000     0.0719201  
C322     C      0.981870000000     0.053630000000     0.348150000000     0.0731931  
C323     C      0.067960000000     0.100320000000     0.348690000000     0.0734417  
C324     C      0.067010000000     0.096660000000     0.306140000000    -0.0810964  
C325     C      0.706270000000     0.740150000000     0.059820000000     0.241695   
C326     C      0.730480000000     0.683760000000     0.040870000000     0.0765365  
C327     C      0.748680000000     0.779480000000     0.042930000000    -0.160156   
C328     C      0.826070000000     0.854180000000     0.988950000000    -0.0772056  
C329     C      0.771340000000     0.721510000000     0.022710000000    -0.108348   
C330     C      0.825250000000     0.811130000000     0.004140000000     0.0248241  
C331     C      0.780980000000     0.770180000000     0.023110000000     0.0663332  
C332     C      0.869760000000     0.895140000000     0.977650000000     0.0816663  
C333     C      0.910560000000     0.849840000000     0.989370000000     0.0779671  
C334     C      0.867860000000     0.808610000000     0.002380000000    -0.081085   
C335     C      0.357310000000     0.356360000000     0.034660000000     0.2396     
C336     C      0.384040000000     0.347770000000     0.102990000000     0.0842768  
C337     C      0.309280000000     0.320920000000     0.044250000000    -0.160796   
C338     C      0.211150000000     0.264620000000     0.091910000000    -0.081919   
C339     C      0.337230000000     0.312120000000     0.112740000000    -0.108529   
C340     C      0.250960000000     0.257590000000     0.091690000000     0.024553   
C341     C      0.299490000000     0.298940000000     0.083430000000     0.0690517  
C342     C      0.164330000000     0.223450000000     0.089590000000     0.0794832  
C343     C      0.196540000000     0.169790000000     0.090810000000     0.0764638  
C344     C      0.243620000000     0.209750000000     0.094280000000    -0.0794512  
C345     C      0.845030000000     0.964720000000     0.069780000000     0.242399   
C346     C      0.857650000000     0.039220000000     0.036000000000     0.0861574  
C347     C      0.800090000000     0.955990000000     0.083080000000    -0.161743   
C348     C      0.695670000000     0.942930000000     0.083580000000    -0.0816181  
C349     C      0.813840000000     0.031510000000     0.048960000000    -0.109529   
C350     C      0.741100000000     0.985570000000     0.090190000000     0.0208395  
C351     C      0.785500000000     0.990650000000     0.074020000000     0.0684457  
C352     C      0.653500000000     0.944850000000     0.088750000000     0.0707272  
C353     C      0.700840000000     0.027540000000     0.111550000000     0.0672276  
C354     C      0.743390000000     0.026750000000     0.107320000000    -0.0829373  
C355     C      0.217160000000     0.070890000000     0.028720000000     0.23721    
C356     C      0.245240000000     0.124820000000     0.970310000000     0.0810864  
C357     C      0.260780000000     0.070050000000     0.032250000000    -0.159409   
C358     C      0.366210000000     0.100080000000     0.046620000000    -0.0829657  
C359     C      0.288960000000     0.123990000000     0.972910000000    -0.101429   
C360     C      0.341630000000     0.092580000000     0.008200000000     0.022687   
C361     C      0.296600000000     0.095670000000     0.003880000000     0.0648432  
C362     C      0.404760000000     0.091240000000     0.052550000000     0.0725268  
C363     C      0.396310000000     0.068220000000     0.983050000000     0.0710648  
C364     C      0.357400000000     0.077050000000     0.975960000000    -0.0787589  
C365     C      0.075200000000     0.910760000000     0.088610000000     0.242105   
C366     C      0.990450000000     0.855660000000     0.079640000000     0.0794708  
C367     C      0.084140000000     0.871800000000     0.083570000000    -0.159223   
C368     C      0.101050000000     0.787400000000     0.070020000000    -0.0792162  
C369     C      0.998150000000     0.815740000000     0.076200000000    -0.105225   
C370     C      0.055430000000     0.784080000000     0.062230000000     0.0201068  
C371     C      0.045750000000     0.823950000000     0.074730000000     0.0694543  
C372     C      0.109440000000     0.750820000000     0.056330000000     0.0687447  
C373     C      0.028720000000     0.706290000000     0.028500000000     0.0694067  
C374     C      0.019740000000     0.743130000000     0.039940000000    -0.0743854  
C375     C      0.116950000000     0.255730000000     0.001670000000     0.237473   
C376     C      0.032260000000     0.222510000000     0.988590000000     0.0798993  
C377     C      0.119380000000     0.295390000000     0.022970000000    -0.158155   
C378     C      0.118180000000     0.383600000000     0.058550000000    -0.0739656  
C379     C      0.034020000000     0.261980000000     0.008030000000    -0.105984   
C380     C      0.076990000000     0.336330000000     0.053400000000     0.0267956  
C381     C      0.077090000000     0.297420000000     0.028230000000     0.0649225  
C382     C      0.113950000000     0.421550000000     0.075340000000     0.0818214  
C383     C      0.031370000000     0.365750000000     0.087740000000     0.0816493  
C384     C      0.034300000000     0.327060000000     0.071380000000    -0.0824838  
Co1      Co     0.013690000000     0.103220000000     0.035270000000     1.13217    
Co2      Co     0.055680000000     0.001100000000     0.995770000000     0.777008   
Co3      Co     0.093750000000     0.096320000000     0.991540000000     1.14903    
Co4      Co     0.999690000000     0.000430000000     0.041910000000     1.10256    
Co5      Co     0.079270000000     0.058390000000     0.479080000000     0.986676   
Co6      Co     0.977290000000     0.079730000000     0.538810000000     1.05942    
Co7      Co     0.985420000000     0.008860000000     0.483900000000     1.06541    
Co8      Co     0.088640000000     0.120600000000     0.560190000000     1.1163     
Co9      Co     0.068380000000     0.513600000000     0.028300000000     1.04563    
Co10     Co     0.032950000000     0.601060000000     0.084420000000     1.11674    
Co11     Co     0.988880000000     0.483420000000     0.091870000000     1.13514    
Co12     Co     0.119450000000     0.607050000000     0.037430000000     0.93974    
Co13     Co     0.043410000000     0.509610000000     0.543920000000     0.927626   
Co14     Co     0.041680000000     0.631590000000     0.596830000000     1.30106    
Co15     Co     0.983490000000     0.511380000000     0.583420000000     1.06801    
Co16     Co     0.067480000000     0.616500000000     0.508740000000     1.10995    
Co17     Co     0.524680000000     0.060830000000     0.091810000000     1.08017    
Co18     Co     0.616160000000     0.050720000000     0.024790000000     1.07326    
Co19     Co     0.543250000000     0.087920000000     0.995430000000     1.063      
Co20     Co     0.518090000000     0.962910000000     0.060070000000     1.04303    
Co21     Co     0.481640000000     0.046850000000     0.578450000000     1.01294    
Co22     Co     0.605700000000     0.074690000000     0.514370000000     1.07408    
Co23     Co     0.530770000000     0.112690000000     0.492870000000     1.09484    
Co24     Co     0.527430000000     0.999500000000     0.567700000000     1.06307    
Co25     Co     0.524430000000     0.469780000000     0.005170000000     0.840181   
Co26     Co     0.549750000000     0.598370000000     0.077310000000     1.10035    
Co27     Co     0.514740000000     0.486140000000     0.070220000000     1.0804     
Co28     Co     0.613400000000     0.586790000000     0.012480000000     1.16678    
Co29     Co     0.535590000000     0.498040000000     0.528850000000     1.11981    
Co30     Co     0.523710000000     0.617130000000     0.569670000000     1.04059    
Co31     Co     0.463040000000     0.519550000000     0.560860000000     1.06046    
Co32     Co     0.595080000000     0.612590000000     0.506800000000     1.12578    
H1       H      0.461560000000     0.483150000000     0.895370000000     0.031615   
H2       H      0.569040000000     0.632690000000     0.690270000000     0.0274595  
H3       H      0.604760000000     0.604200000000     0.819940000000     0.0510236  
H4       H      0.572430000000     0.628340000000     0.763850000000     0.0574894  
H5       H      0.454400000000     0.487580000000     0.820670000000     0.0521861  
H6       H      0.481520000000     0.469880000000     0.760260000000     0.0724759  
H7       H      0.609860000000     0.600520000000     0.893560000000     0.0229414  
H8       H      0.457190000000     0.436710000000     0.697620000000     0.150188   
H9       H      0.494580000000     0.461910000000     0.190910000000     0.0354454  
H10      H      0.552330000000     0.606970000000     0.390110000000     0.0273136  
H11      H      0.612710000000     0.609240000000     0.269230000000     0.0529304  
H12      H      0.552490000000     0.602490000000     0.317330000000     0.0587741  
H13      H      0.496630000000     0.456970000000     0.265660000000     0.0517393  
H14      H      0.548370000000     0.463330000000     0.330840000000     0.0708777  
H15      H      0.609280000000     0.613300000000     0.194940000000     0.0325419  
H16      H      0.545000000000     0.433410000000     0.395820000000     0.145178   
H17      H      0.610630000000     0.752340000000     0.473230000000     0.023447   
H18      H      0.458950000000     0.878280000000     0.508430000000     0.0301001  
H19      H      0.448890000000     0.737200000000     0.466280000000     0.0480315  
H20      H      0.457420000000     0.802440000000     0.498840000000     0.0545099  
H21      H      0.605290000000     0.826390000000     0.461470000000     0.0480644  
H22      H      0.586260000000     0.880690000000     0.429220000000     0.0686293  
H23      H      0.456550000000     0.665360000000     0.481740000000     0.0280914  
H24      H      0.617320000000     0.962710000000     0.421810000000     0.144657   
H25      H      0.563020000000     0.246650000000     0.535650000000     0.0267143  
H26      H      0.402310000000     0.355360000000     0.553830000000     0.0275254  
H27      H      0.417020000000     0.206860000000     0.609450000000     0.0508882  
H28      H      0.404470000000     0.278540000000     0.550280000000     0.0561683  
H29      H      0.545830000000     0.312030000000     0.547820000000     0.0523984  
H30      H      0.534910000000     0.341390000000     0.627950000000     0.0726892  
H31      H      0.435730000000     0.142000000000     0.597830000000     0.0239805  
H32      H      0.558390000000     0.415850000000     0.654480000000     0.14561    
H33      H      0.535930000000     0.113530000000     0.691610000000     0.0290364  
H34      H      0.647700000000     0.070290000000     0.899190000000     0.0230356  
H35      H      0.615860000000     0.025830000000     0.756550000000     0.0524395  
H36      H      0.653800000000     0.080970000000     0.824870000000     0.0570399  
H37      H      0.546460000000     0.112080000000     0.765910000000     0.0511982  
H38      H      0.501460000000     0.031160000000     0.811350000000     0.0716145  
H39      H      0.604280000000     0.027410000000     0.681900000000     0.0338847  
H40      H      0.459680000000     0.005820000000     0.868530000000     0.147621   
H41      H      0.625250000000     0.066410000000     0.398370000000     0.0300226  
H42      H      0.613140000000     0.070580000000     0.189680000000     0.0303312  
H43      H      0.471760000000     0.002200000000     0.314490000000     0.0502487  
H44      H      0.614330000000     0.078690000000     0.262570000000     0.0567094  
H45      H      0.621650000000     0.039890000000     0.329210000000     0.051129   
H46      H      0.480080000000     0.939970000000     0.268960000000     0.0695809  
H47      H      0.476360000000     0.028860000000     0.384560000000     0.0290791  
H48      H      0.448820000000     0.900030000000     0.208630000000     0.145115   
H49      H      0.481640000000     0.654030000000     0.004570000000     0.0281445  
H50      H      0.633030000000     0.938250000000     0.989310000000     0.0225142  
H51      H      0.624070000000     0.795910000000     0.943390000000     0.0488092  
H52      H      0.632230000000     0.862660000000     0.978870000000     0.0542435  
H53      H      0.480410000000     0.729100000000     0.990330000000     0.0504267  
H54      H      0.478320000000     0.789650000000     0.949440000000     0.0692759  
H55      H      0.624790000000     0.719560000000     0.960290000000     0.0235798  
H56      H      0.443480000000     0.836300000000     0.951770000000     0.147265   
H57      H      0.601200000000     0.191990000000     0.139770000000     0.0238225  
H58      H      0.502500000000     0.346990000000     0.080460000000     0.0234882  
H59      H      0.613050000000     0.311810000000     0.030610000000     0.0515659  
H60      H      0.524290000000     0.283780000000     0.090750000000     0.060585   
H61      H      0.612110000000     0.271610000000     0.158850000000     0.0512702  
H62      H      0.672610000000     0.395570000000     0.118950000000     0.0698477  
H63      H      0.599430000000     0.231440000000     0.012540000000     0.0226734  
H64      H      0.686760000000     0.474840000000     0.121270000000     0.149786   
H65      H      0.724850000000     0.196780000000     0.534020000000     0.0257168  
H66      H      0.862660000000     0.468450000000     0.506790000000     0.0311906  
H67      H      0.720550000000     0.323740000000     0.440940000000     0.0509555  
H68      H      0.783540000000     0.396440000000     0.492940000000     0.0588716  
H69      H      0.799580000000     0.272470000000     0.520940000000     0.0513489  
H70      H      0.851890000000     0.317840000000     0.455290000000     0.0702413  
H71      H      0.645250000000     0.245810000000     0.453810000000     0.0234686  
H72      H      0.933780000000     0.361960000000     0.453010000000     0.146772   
H73      H      0.447890000000     0.848510000000     0.594970000000     0.0309541  
H74      H      0.176760000000     0.699870000000     0.642300000000     0.0252532  
H75      H      0.307210000000     0.862550000000     0.629390000000     0.0516797  
H76      H      0.261620000000     0.753970000000     0.660120000000     0.0591936  
H77      H      0.366570000000     0.775550000000     0.590150000000     0.0499829  
H78      H      0.290150000000     0.790180000000     0.532620000000     0.0756923  
H79      H      0.388170000000     0.934860000000     0.632480000000     0.0237998  
H80      H      0.225820000000     0.753360000000     0.487420000000     0.148566   
H81      H      0.851090000000     0.486090000000     0.606590000000     0.033306   
H82      H      0.718200000000     0.610560000000     0.507270000000     0.0215134  
H83      H      0.853220000000     0.645040000000     0.598080000000     0.0494868  
H84      H      0.794830000000     0.617610000000     0.531540000000     0.0594867  
H85      H      0.775030000000     0.485450000000     0.595160000000     0.0522448  
H86      H      0.723300000000     0.513390000000     0.629370000000     0.0730292  
H87      H      0.928560000000     0.644530000000     0.610320000000     0.0344366  
H88      H      0.644070000000     0.484770000000     0.633810000000     0.145386   
H89      H      0.427000000000     0.634640000000     0.575300000000     0.0224761  
H90      H      0.165060000000     0.566100000000     0.620830000000     0.0287504  
H91      H      0.255130000000     0.505070000000     0.585940000000     0.0543969  
H92      H      0.238550000000     0.563020000000     0.633540000000     0.060006   
H93      H      0.365700000000     0.658560000000     0.572410000000     0.0493789  
H94      H      0.289640000000     0.636250000000     0.517300000000     0.071109   
H95      H      0.317360000000     0.481810000000     0.587740000000     0.0335124  
H96      H      0.240830000000     0.659210000000     0.480960000000     0.145467   
H97      H      0.082320000000     0.641690000000     0.705620000000     0.0241258  
H98      H      0.995440000000     0.500470000000     0.915670000000     0.0331875  
H99      H      0.024600000000     0.484970000000     0.784000000000     0.053814   
H100     H      0.991190000000     0.496410000000     0.841760000000     0.0572786  
H101     H      0.086400000000     0.643830000000     0.778300000000     0.051458   
H102     H      0.122420000000     0.638760000000     0.837320000000     0.0706772  
H103     H      0.016540000000     0.483840000000     0.708910000000     0.0289997  
H104     H      0.150830000000     0.679040000000     0.896190000000     0.147064   
H105     H      0.029720000000     0.474350000000     0.209410000000     0.0293234  
H106     H      0.999130000000     0.572650000000     0.411020000000     0.0266968  
H107     H      0.050420000000     0.618770000000     0.281620000000     0.0510879  
H108     H      0.999220000000     0.575420000000     0.337740000000     0.055018   
H109     H      0.040190000000     0.475980000000     0.283420000000     0.0526428  
H110     H      0.094370000000     0.515370000000     0.342840000000     0.0712132  
H111     H      0.038470000000     0.615390000000     0.207320000000     0.0255499  
H112     H      0.115200000000     0.497610000000     0.406210000000     0.148482   
H113     H      0.672350000000     0.212840000000     0.948170000000     0.0238684  
H114     H      0.958230000000     0.351420000000     0.003630000000     0.0230755  
H115     H      0.811180000000     0.236420000000     0.040410000000     0.0487461  
H116     H      0.880700000000     0.274740000000     0.992020000000     0.0544232  
H117     H      0.753420000000     0.282900000000     0.935670000000     0.0498429  
H118     H      0.808450000000     0.359100000000     0.973880000000     0.0697418  
H119     H      0.730700000000     0.167990000000     0.052210000000     0.026431   
H120     H      0.856500000000     0.441920000000     0.975640000000     0.147103   
H121     H      0.231790000000     0.662410000000     0.110960000000     0.0273282  
H122     H      0.393080000000     0.945180000000     0.146080000000     0.0266468  
H123     H      0.218460000000     0.808310000000     0.138820000000     0.0481784  
H124     H      0.320800000000     0.868720000000     0.167520000000     0.0556604  
H125     H      0.303470000000     0.744140000000     0.108000000000     0.0515375  
H126     H      0.302940000000     0.810150000000     0.047490000000     0.0725022  
H127     H      0.146590000000     0.725370000000     0.141290000000     0.0230453  
H128     H      0.354040000000     0.861070000000     0.000440000000     0.14957    
H129     H      0.709140000000     0.570850000000     0.965730000000     0.00792123 
H130     H      0.853900000000     0.445220000000     0.071710000000     0.0231965  
H131     H      0.701440000000     0.426160000000     0.039720000000     0.0475259  
H132     H      0.775630000000     0.429280000000     0.041350000000     0.0539892  
H133     H      0.783510000000     0.569480000000     0.980040000000     0.0493778  
H134     H      0.829540000000     0.586250000000     0.037790000000     0.0705904  
H135     H      0.626680000000     0.426550000000     0.018650000000     0.0234309  
H136     H      0.906520000000     0.635280000000     0.058950000000     0.143858   
H137     H      0.385020000000     0.470490000000     0.009700000000     0.0457548  
H138     H      0.230880000000     0.600490000000     0.031800000000     0.0250218  
H139     H      0.338180000000     0.567590000000     0.089780000000     0.050162   
H140     H      0.303780000000     0.597850000000     0.043000000000     0.0556629  
H141     H      0.309630000000     0.468890000000     0.990300000000     0.0510781  
H142     H      0.230290000000     0.448470000000     0.999390000000     0.0668099  
H143     H      0.414420000000     0.570760000000     0.106150000000     0.0254117  
H144     H      0.154470000000     0.420950000000     0.971090000000     0.146201   
H145     H      0.923850000000     0.881080000000     0.545560000000     0.0306332  
H146     H      0.648200000000     0.764590000000     0.580120000000     0.0207246  
H147     H      0.801010000000     0.893190000000     0.620450000000     0.0494412  
H148     H      0.727900000000     0.838290000000     0.585520000000     0.0542562  
H149     H      0.848000000000     0.806290000000     0.559770000000     0.0491574  
H150     H      0.793050000000     0.747200000000     0.604590000000     0.0689446  
H151     H      0.876430000000     0.967160000000     0.604310000000     0.0244885  
H152     H      0.741590000000     0.665080000000     0.605880000000     0.146261   
H153     H      0.428970000000     0.392950000000     0.458880000000     0.0282633  
H154     H      0.163720000000     0.256840000000     0.515510000000     0.0314716  
H155     H      0.278580000000     0.400700000000     0.455960000000     0.0522223  
H156     H      0.232840000000     0.334200000000     0.498870000000     0.0604186  
H157     H      0.352350000000     0.318130000000     0.447280000000     0.0486446  
H158     H      0.277180000000     0.261510000000     0.417960000000     0.0680869  
H159     H      0.356480000000     0.474630000000     0.470540000000     0.0315251  
H160     H      0.229010000000     0.178840000000     0.413770000000     0.144286   
H161     H      0.623310000000     0.945550000000     0.547050000000     0.0342142  
H162     H      0.836460000000     0.953250000000     0.499740000000     0.0309675  
H163     H      0.784660000000     0.097170000000     0.551990000000     0.0473028  
H164     H      0.764610000000     0.946570000000     0.526140000000     0.0546919  
H165     H      0.690680000000     0.944200000000     0.518440000000     0.0487275  
H166     H      0.813990000000     0.097870000000     0.488720000000     0.0679386  
H167     H      0.715720000000     0.097860000000     0.577530000000     0.0248325  
H168     H      0.885830000000     0.138540000000     0.459030000000     0.144424   
H169     H      0.129160000000     0.977970000000     0.522250000000     0.0278867  
H170     H      0.404590000000     0.108960000000     0.479540000000     0.0196955  
H171     H      0.293540000000     0.117750000000     0.555240000000     0.0498312  
H172     H      0.331920000000     0.111650000000     0.490670000000     0.0566505  
H173     H      0.199140000000     0.970020000000     0.510620000000     0.0510385  
H174     H      0.268720000000     0.967210000000     0.547930000000     0.0702728  
H175     H      0.222550000000     0.124490000000     0.566820000000     0.0271977  
H176     H      0.313480000000     0.930010000000     0.549750000000     0.145292   
H177     H      0.912790000000     0.862210000000     0.445410000000     0.0344319  
H178     H      0.007560000000     0.680450000000     0.438570000000     0.0213306  
H179     H      0.066210000000     0.860000000000     0.446890000000     0.0522983  
H180     H      0.994690000000     0.745450000000     0.407270000000     0.0595594  
H181     H      0.910130000000     0.783160000000     0.449670000000     0.0508478  
H182     H      0.983020000000     0.788380000000     0.526910000000     0.074289   
H183     H      0.068090000000     0.938580000000     0.443690000000     0.0242733  
H184     H      0.988970000000     0.743930000000     0.580720000000     0.143833   
H185     H      0.049470000000     0.426770000000     0.643760000000     0.0321357  
H186     H      0.974950000000     0.198990000000     0.521390000000     0.030825   
H187     H      0.906860000000     0.272310000000     0.594030000000     0.0478051  
H188     H      0.950350000000     0.253510000000     0.546160000000     0.0555924  
H189     H      0.055680000000     0.353670000000     0.641930000000     0.0514087  
H190     H      0.037060000000     0.272510000000     0.657780000000     0.0695328  
H191     H      0.902560000000     0.348060000000     0.595890000000     0.0296323  
H192     H      0.079070000000     0.232660000000     0.662530000000     0.146695   
H193     H      0.027860000000     0.972340000000     0.870860000000     0.0303555  
H194     H      0.970340000000     0.082800000000     0.666700000000     0.0234625  
H195     H      0.038830000000     0.118790000000     0.797000000000     0.0536253  
H196     H      0.970470000000     0.074110000000     0.741140000000     0.0578782  
H197     H      0.011050000000     0.969050000000     0.796910000000     0.0519461  
H198     H      0.064570000000     0.013690000000     0.738030000000     0.0723309  
H199     H      0.055780000000     0.121130000000     0.870790000000     0.0374559  
H200     H      0.083560000000     0.003470000000     0.675680000000     0.147648   
H201     H      0.947960000000     0.035400000000     0.363760000000     0.0356868  
H202     H      0.070590000000     0.032550000000     0.165960000000     0.0326216  
H203     H      0.100900000000     0.114130000000     0.290590000000     0.051983   
H204     H      0.073390000000     0.039710000000     0.240470000000     0.0594255  
H205     H      0.944390000000     0.029650000000     0.289320000000     0.054027   
H206     H      0.967630000000     0.086070000000     0.227030000000     0.0724877  
H207     H      0.103350000000     0.120070000000     0.364650000000     0.0349638  
H208     H      0.937900000000     0.087690000000     0.163510000000     0.145067   
H209     H      0.869800000000     0.929060000000     0.969000000000     0.0306091  
H210     H      0.725030000000     0.646770000000     0.039210000000     0.0186373  
H211     H      0.869620000000     0.776410000000     0.013450000000     0.0474935  
H212     H      0.794480000000     0.711820000000     0.007660000000     0.0524123  
H213     H      0.793750000000     0.857270000000     0.987360000000     0.0502817  
H214     H      0.756230000000     0.817040000000     0.045670000000     0.0687192  
H215     H      0.943360000000     0.847470000000     0.990960000000     0.0254228  
H216     H      0.685980000000     0.785460000000     0.077420000000     0.14399    
H217     H      0.133980000000     0.229920000000     0.087030000000     0.0265408  
H218     H      0.412260000000     0.356750000000     0.127010000000     0.0304084  
H219     H      0.274020000000     0.203390000000     0.095210000000     0.0533424  
H220     H      0.330650000000     0.294580000000     0.142980000000     0.0579539  
H221     H      0.216140000000     0.301530000000     0.091060000000     0.0487119  
H222     H      0.279960000000     0.309500000000     0.020950000000     0.074591   
H223     H      0.191980000000     0.133160000000     0.089460000000     0.0395258  
H224     H      0.336680000000     0.364040000000     0.978280000000     0.146867   
H225     H      0.618860000000     0.912840000000     0.079880000000     0.0273543  
H226     H      0.878940000000     0.072460000000     0.017740000000     0.0219134  
H227     H      0.778050000000     0.059700000000     0.114280000000     0.0500494  
H228     H      0.802620000000     0.058140000000     0.040000000000     0.0553844  
H229     H      0.692690000000     0.910080000000     0.071040000000     0.0479867  
H230     H      0.777500000000     0.923230000000     0.101330000000     0.0702064  
H231     H      0.704080000000     0.061550000000     0.121820000000     0.0278463  
H232     H      0.833850000000     0.901280000000     0.093350000000     0.146825   
H233     H      0.422220000000     0.097330000000     0.083080000000     0.023971   
H234     H      0.239690000000     0.145880000000     0.945340000000     0.0296206  
H235     H      0.338820000000     0.070210000000     0.945920000000     0.0525017  
H236     H      0.316420000000     0.145110000000     0.950860000000     0.0581255  
H237     H      0.355160000000     0.112070000000     0.072330000000     0.0498148  
H238     H      0.266320000000     0.048700000000     0.056950000000     0.0699361  
H239     H      0.407270000000     0.055730000000     0.957590000000     0.0320782  
H240     H      0.197270000000     0.036710000000     0.081720000000     0.147056   
H241     H      0.144930000000     0.754890000000     0.063040000000     0.0270244  
H242     H      0.953360000000     0.848280000000     0.076670000000     0.0300281  
H243     H      0.984730000000     0.738980000000     0.030870000000     0.0454738  
H244     H      0.966580000000     0.779190000000     0.072830000000     0.0540148  
H245     H      0.130420000000     0.817280000000     0.087250000000     0.0467578  
H246     H      0.121460000000     0.880450000000     0.084740000000     0.0699313  
H247     H      0.999450000000     0.674760000000     0.012370000000     0.034544   
H248     H      0.142810000000     0.955540000000     0.106380000000     0.141693   
H249     H      0.145860000000     0.458210000000     0.076780000000     0.0299158  
H250     H      0.997210000000     0.194660000000     0.975620000000     0.0178913  
H251     H      0.002320000000     0.290470000000     0.071450000000     0.0488657  
H252     H      0.000980000000     0.263630000000     0.007920000000     0.0564491  
H253     H      0.152860000000     0.392490000000     0.047460000000     0.0491451  
H254     H      0.153960000000     0.323100000000     0.036460000000     0.0648924  
H255     H      0.996570000000     0.357290000000     0.098620000000     0.0197539  
H256     H      0.187620000000     0.285620000000     0.005750000000     0.140908   
N1       N      0.521520000000     0.554490000000     0.681770000000    -0.226886   
N2       N      0.536270000000     0.540990000000     0.900010000000    -0.201956   
N3       N      0.551610000000     0.538580000000     0.404130000000    -0.230625   
N4       N      0.550810000000     0.538360000000     0.187540000000    -0.203079   
N5       N      0.525740000000     0.924560000000     0.478400000000    -0.223309   
N6       N      0.534290000000     0.704040000000     0.480060000000    -0.207086   
N7       N      0.468240000000     0.392720000000     0.591170000000    -0.227447   
N8       N      0.500760000000     0.189510000000     0.565870000000    -0.206914   
N9       N      0.571520000000     0.045820000000     0.898550000000    -0.223117   
N10      N      0.567470000000     0.068830000000     0.681370000000    -0.200942   
N11      N      0.545510000000     0.001490000000     0.185890000000    -0.22651    
N12      N      0.551330000000     0.050500000000     0.396420000000    -0.202346   
N13      N      0.555840000000     0.907570000000     0.979470000000    -0.225748   
N14      N      0.554190000000     0.681940000000     0.985180000000    -0.202551   
N15      N      0.574400000000     0.407530000000     0.093510000000    -0.227769   
N16      N      0.597040000000     0.205260000000     0.074850000000    -0.20449    
N17      N      0.903050000000     0.433830000000     0.492040000000    -0.22722    
N18      N      0.679510000000     0.215660000000     0.494760000000    -0.205924   
N19      N      0.183160000000     0.714200000000     0.576930000000    -0.23759    
N20      N      0.423110000000     0.897000000000     0.612200000000    -0.194193   
N21      N      0.676310000000     0.557200000000     0.553570000000    -0.233929   
N22      N      0.895310000000     0.565400000000     0.607270000000    -0.213822   
N23      N      0.182340000000     0.598420000000     0.560070000000    -0.228597   
N24      N      0.376390000000     0.556330000000     0.581310000000    -0.195372   
N25      N      0.060420000000     0.571960000000     0.919250000000    -0.229402   
N26      N      0.047520000000     0.562310000000     0.701850000000    -0.217755   
N27      N      0.046490000000     0.542390000000     0.420580000000    -0.227496   
N28      N      0.032390000000     0.544350000000     0.202910000000    -0.2072     
N29      N      0.927190000000     0.398100000000     0.997730000000    -0.226675   
N30      N      0.695350000000     0.185390000000     0.001150000000    -0.202145   
N31      N      0.390650000000     0.921330000000     0.085000000000    -0.221265   
N32      N      0.183180000000     0.688000000000     0.123880000000    -0.19692    
N33      N      0.887400000000     0.524210000000     0.068540000000    -0.236225   
N34      N      0.663350000000     0.499440000000     0.992330000000    -0.206437   
N35      N      0.186670000000     0.525970000000     0.009970000000    -0.213715   
N36      N      0.405690000000     0.521430000000     0.058860000000    -0.203129   
N37      N      0.674710000000     0.713890000000     0.585880000000    -0.233062   
N38      N      0.904830000000     0.929680000000     0.572380000000    -0.200436   
N39      N      0.180600000000     0.212560000000     0.478970000000    -0.22715    
N40      N      0.397960000000     0.438380000000     0.468460000000    -0.19975    
N41      N      0.868810000000     0.030270000000     0.482620000000    -0.23051    
N42      N      0.664460000000     0.022300000000     0.562920000000    -0.205346   
N43      N      0.380340000000     0.037820000000     0.508950000000    -0.232806   
N44      N      0.170750000000     0.052240000000     0.544520000000    -0.206667   
N45      N      0.005340000000     0.698650000000     0.500770000000    -0.234891   
N46      N      0.990750000000     0.905960000000     0.446090000000    -0.190459   
N47      N      0.021400000000     0.204560000000     0.574240000000    -0.226738   
N48      N      0.976440000000     0.392870000000     0.617900000000    -0.188536   
N49      N      0.018800000000     0.055360000000     0.659380000000    -0.226707   
N50      N      0.043730000000     0.047170000000     0.876170000000    -0.200046   
N51      N      0.018700000000     0.056280000000     0.153630000000    -0.225179   
N52      N      0.025850000000     0.076590000000     0.369750000000    -0.202703   
N53      N      0.697050000000     0.692340000000     0.057630000000    -0.234825   
N54      N      0.912110000000     0.893780000000     0.980610000000    -0.204415   
N55      N      0.394210000000     0.370060000000     0.064580000000    -0.21466    
N56      N      0.157790000000     0.177250000000     0.084360000000    -0.202096   
N57      N      0.874510000000     0.007810000000     0.048060000000    -0.224808   
N58      N      0.656760000000     0.988550000000     0.098750000000    -0.203741   
N59      N      0.208930000000     0.096450000000     0.996630000000    -0.210466   
N60      N      0.419650000000     0.075100000000     0.021180000000    -0.202402   
N61      N      0.028960000000     0.903140000000     0.081680000000    -0.208789   
N62      N      0.072800000000     0.709490000000     0.037500000000    -0.206287   
N63      N      0.072310000000     0.217130000000     0.988360000000    -0.22513    
N64      N      0.069730000000     0.413460000000     0.086300000000    -0.20395    
O1       O      0.023230000000     0.133960000000     0.982670000000    -0.43525    
O2       O      0.995070000000     0.938690000000     0.986780000000    -0.422219   
O3       O      0.070290000000     0.089030000000     0.936590000000    -0.439377   
O4       O      0.941870000000     0.999230000000     0.057820000000    -0.386314   
O5       O      0.051530000000     0.012470000000     0.937780000000    -0.415868   
O6       O      0.947350000000     0.061070000000     0.019350000000    -0.435854   
O7       O      0.956940000000     0.974420000000     0.994820000000    -0.434794   
O8       O      0.099950000000     0.162280000000     0.985810000000    -0.377214   
O9       O      0.003280000000     0.078100000000     0.089350000000    -0.452085   
O10      O      0.126190000000     0.049060000000     0.999260000000    -0.42716    
O11      O      0.117150000000     0.107400000000     0.047470000000    -0.435732   
O12      O      0.980530000000     0.938480000000     0.067450000000    -0.396325   
O13      O      0.058330000000     0.980620000000     0.052990000000    -0.401163   
O14      O      0.079980000000     0.148120000000     0.057610000000    -0.437967   
O15      O      0.035670000000     0.031470000000     0.094050000000    -0.405187   
O16      O      0.157240000000     0.125290000000     0.974490000000    -0.403973   
O17      O      0.030450000000     0.056280000000     0.011470000000    -0.648312   
O18      O      0.068740000000     0.083400000000     0.429710000000    -0.4582     
O19      O      0.010980000000     0.147760000000     0.527720000000    -0.441131   
O20      O      0.920640000000     0.000310000000     0.481320000000    -0.399732   
O21      O      0.118030000000     0.169930000000     0.521380000000    -0.470744   
O22      O      0.950950000000     0.077470000000     0.484890000000    -0.423298   
O23      O      0.135720000000     0.126680000000     0.483490000000    -0.398607   
O24      O      0.061100000000     0.159820000000     0.578210000000    -0.416391   
O25      O      0.991000000000     0.041620000000     0.430940000000    -0.427406   
O26      O      0.092770000000     0.029990000000     0.526060000000    -0.449966   
O27      O      0.937840000000     0.010920000000     0.553770000000    -0.448426   
O28      O      0.954280000000     0.950830000000     0.457180000000    -0.406358   
O29      O      0.060230000000     0.072330000000     0.600940000000    -0.447808   
O30      O      0.996480000000     0.080710000000     0.598240000000    -0.43183    
O31      O      0.033680000000     0.988260000000     0.463390000000    -0.475299   
O32      O      0.135700000000     0.098850000000     0.555780000000    -0.438387   
O33      O      0.973140000000     0.971710000000     0.534520000000    -0.422321   
O34      O      0.032020000000     0.073060000000     0.514990000000    -0.529596   
O35      O      0.009140000000     0.446150000000     0.017760000000    -0.378829   
O36      O      0.041310000000     0.627590000000     0.030980000000    -0.442017   
O37      O      0.941040000000     0.502180000000     0.099100000000    -0.465187   
O38      O      0.099100000000     0.604660000000     0.981330000000    -0.426611   
O39      O      0.969290000000     0.570840000000     0.065480000000    -0.466459   
O40      O      0.044070000000     0.527870000000     0.979400000000    -0.445024   
O41      O      0.116700000000     0.669540000000     0.039020000000    -0.397141   
O42      O      0.956140000000     0.460850000000     0.041650000000    -0.458887   
O43      O      0.102900000000     0.492250000000     0.998780000000    -0.375249   
O44      O      0.020570000000     0.575350000000     0.140500000000    -0.451197   
O45      O      0.019160000000     0.443900000000     0.092480000000    -0.455134   
O46      O      0.145660000000     0.613950000000     0.091650000000    -0.423735   
O47      O      0.100750000000     0.643250000000     0.108340000000    -0.425341   
O48      O      0.092350000000     0.494930000000     0.077910000000    -0.425161   
O49      O      0.146020000000     0.565170000000     0.026390000000    -0.469967   
O50      O      0.018760000000     0.504530000000     0.142880000000    -0.479974   
O51      O      0.044700000000     0.548130000000     0.061440000000    -0.537132   
O52      O      0.981910000000     0.463650000000     0.516800000000    -0.429092   
O53      O      0.037680000000     0.673030000000     0.554230000000    -0.473722   
O54      O      0.938600000000     0.526460000000     0.602390000000    -0.441617   
O55      O      0.024570000000     0.561810000000     0.478490000000    -0.466224   
O56      O      0.976610000000     0.607200000000     0.600790000000    -0.51356    
O57      O      0.067320000000     0.528220000000     0.487400000000    -0.380278   
O58      O      0.021070000000     0.635480000000     0.496360000000    -0.460352   
O59      O      0.945140000000     0.499710000000     0.534320000000    -0.434973   
O60      O      0.102390000000     0.548170000000     0.568480000000    -0.452073   
O61      O      0.045730000000     0.602300000000     0.643320000000    -0.545815   
O62      O      0.944980000000     0.444330000000     0.600030000000    -0.389407   
O63      O      0.114870000000     0.678940000000     0.533070000000    -0.442333   
O64      O      0.107480000000     0.659400000000     0.597430000000    -0.517872   
O65      O      0.023180000000     0.471990000000     0.594660000000    -0.451294   
O66      O      0.123130000000     0.604260000000     0.519200000000    -0.404581   
O67      O      0.015780000000     0.523820000000     0.639840000000    -0.419737   
O68      O      0.032000000000     0.574300000000     0.559380000000    -0.564026   
O69      O      0.481930000000     0.078980000000     0.062680000000    -0.453066   
O70      O      0.596710000000     0.984770000000     0.007470000000    -0.447893   
O71      O      0.533170000000     0.041330000000     0.956760000000    -0.418215   
O72      O      0.457440000000     0.956200000000     0.046400000000    -0.413521   
O73      O      0.608420000000     0.059470000000     0.964080000000    -0.423585   
O74      O      0.461470000000     0.996100000000     0.099960000000    -0.412731   
O75      O      0.518380000000     0.946600000000     0.004470000000    -0.402798   
O76      O      0.474370000000     0.054150000000     0.000220000000    -0.421663   
O77      O      0.564200000000     0.045610000000     0.126090000000    -0.44787    
O78      O      0.644720000000     0.116830000000     0.038330000000    -0.447767   
O79      O      0.555740000000     0.142010000000     0.029670000000    -0.445721   
O80      O      0.577620000000     0.961630000000     0.077280000000    -0.426506   
O81      O      0.628590000000     0.040100000000     0.080300000000    -0.433344   
O82      O      0.578730000000     0.125630000000     0.089840000000    -0.436107   
O83      O      0.514980000000     0.967330000000     0.121250000000    -0.398621   
O84      O      0.613430000000     0.133650000000     0.984000000000    -0.420612   
O85      O      0.549340000000     0.040060000000     0.041930000000    -0.517109   
O86      O      0.435200000000     0.016520000000     0.535330000000    -0.437696   
O87      O      0.575160000000     0.005850000000     0.496070000000    -0.421512   
O88      O      0.519820000000     0.068590000000     0.449950000000    -0.451801   
O89      O      0.502190000000     0.938970000000     0.593820000000    -0.403867   
O90      O      0.594360000000     0.084690000000     0.456680000000    -0.44376    
O91      O      0.463330000000     0.979230000000     0.594980000000    -0.501938   
O92      O      0.501360000000     0.966350000000     0.517350000000    -0.429643   
O93      O      0.461390000000     0.080800000000     0.495790000000    -0.458392   
O94      O      0.523100000000     0.074550000000     0.625460000000    -0.44645    
O95      O      0.639050000000     0.140890000000     0.527370000000    -0.457111   
O96      O      0.540730000000     0.159790000000     0.531830000000    -0.458004   
O97      O      0.582870000000     0.989500000000     0.567070000000    -0.393871   
O98      O      0.626990000000     0.066710000000     0.567810000000    -0.443019   
O99      O      0.483820000000     0.109180000000     0.571690000000    -0.442693   
O100     O      0.556340000000     0.030030000000     0.620460000000    -0.419235   
O101     O      0.598640000000     0.159070000000     0.481080000000    -0.438156   
O102     O      0.542500000000     0.065570000000     0.537960000000    -0.528027   
O103     O      0.454950000000     0.428410000000     0.022790000000    -0.375887   
O104     O      0.527920000000     0.616000000000     0.029030000000    -0.46469    
O105     O      0.462070000000     0.498610000000     0.050080000000    -0.417705   
O106     O      0.583650000000     0.563650000000     0.959330000000    -0.460008   
O107     O      0.482130000000     0.558490000000     0.090350000000    -0.441696   
O108     O      0.507920000000     0.502530000000     0.962280000000    -0.405266   
O109     O      0.595190000000     0.638890000000     0.998870000000    -0.433396   
O110     O      0.470440000000     0.425150000000     0.088970000000    -0.427973   
O111     O      0.585540000000     0.485680000000     0.981040000000    -0.403006   
O112     O      0.571810000000     0.583210000000     0.127450000000    -0.451358   
O113     O      0.568140000000     0.477420000000     0.092870000000    -0.394721   
O114     O      0.645710000000     0.609960000000     0.062740000000    -0.459407   
O115     O      0.616390000000     0.655100000000     0.072090000000    -0.41504    
O116     O      0.538810000000     0.429890000000     0.041570000000    -0.459336   
O117     O      0.637230000000     0.544860000000     0.020540000000    -0.471965   
O118     O      0.515150000000     0.506020000000     0.124830000000    -0.417005   
O119     O      0.555200000000     0.542100000000     0.043820000000    -0.588016   
O120     O      0.472590000000     0.465780000000     0.500360000000    -0.455048   
O121     O      0.505850000000     0.633810000000     0.518610000000    -0.462599   
O122     O      0.400730000000     0.498790000000     0.576980000000    -0.394035   
O123     O      0.560720000000     0.585280000000     0.458730000000    -0.485264   
O124     O      0.455270000000     0.577390000000     0.575410000000    -0.526309   
O125     O      0.556460000000     0.514560000000     0.471860000000    -0.42222    
O126     O      0.577300000000     0.663930000000     0.495910000000    -0.443994   
O127     O      0.438300000000     0.510000000000     0.505240000000    -0.428613   
O128     O      0.594750000000     0.522680000000     0.554310000000    -0.46598    
O129     O      0.538560000000     0.601910000000     0.622790000000    -0.458595   
O130     O      0.442500000000     0.447250000000     0.568090000000    -0.381847   
O131     O      0.632640000000     0.640590000000     0.554230000000    -0.465431   
O132     O      0.591610000000     0.673340000000     0.571440000000    -0.43446    
O133     O      0.516840000000     0.475210000000     0.582420000000    -0.426587   
O134     O      0.630910000000     0.577830000000     0.507990000000    -0.456236   
O135     O      0.484340000000     0.524300000000     0.618570000000    -0.402511   
O136     O      0.534240000000     0.560760000000     0.541450000000    -0.543429   
O137     O      0.471690000000     0.466070000000     0.678890000000    -0.272508   
O138     O      0.546880000000     0.459840000000     0.412720000000    -0.292625   
O139     O      0.595830000000     0.968920000000     0.438060000000    -0.294657   
O140     O      0.536730000000     0.425840000000     0.639170000000    -0.269669   
O141     O      0.485240000000     0.012940000000     0.890510000000    -0.275785   
O142     O      0.471870000000     0.923120000000     0.188280000000    -0.291206   
O143     O      0.470780000000     0.868730000000     0.961130000000    -0.277557   
O144     O      0.654880000000     0.471170000000     0.112110000000    -0.28536    
O145     O      0.942300000000     0.393540000000     0.465920000000    -0.28614    
O146     O      0.198180000000     0.733770000000     0.505400000000    -0.285943   
O147     O      0.636350000000     0.500510000000     0.609630000000    -0.269396   
O148     O      0.210910000000     0.643240000000     0.496750000000    -0.282818   
O149     O      0.129950000000     0.653960000000     0.916660000000    -0.286305   
O150     O      0.098490000000     0.507820000000     0.424650000000    -0.282651   
O151     O      0.888900000000     0.446320000000     0.983850000000    -0.286632   
O152     O      0.376910000000     0.890850000000     0.016450000000    -0.273402   
O153     O      0.917210000000     0.611350000000     0.067620000000    -0.299477   
O154     O      0.147210000000     0.446780000000     0.978480000000    -0.280558   
O155     O      0.709440000000     0.662260000000     0.599770000000    -0.284605   
O156     O      0.203540000000     0.171080000000     0.433390000000    -0.290807   
O157     O      0.896220000000     0.113560000000     0.459600000000    -0.287534   
O158     O      0.344250000000     0.955540000000     0.537680000000    -0.287591   
O159     O      0.996270000000     0.720600000000     0.567750000000    -0.296938   
O160     O      0.070580000000     0.215310000000     0.636000000000    -0.289202   
O161     O      0.068050000000     0.017890000000     0.656890000000    -0.283211   
O162     O      0.956610000000     0.078560000000     0.146390000000    -0.288949   
O163     O      0.674310000000     0.749470000000     0.078850000000    -0.291262   
O164     O      0.367230000000     0.377540000000     0.995650000000    -0.285898   
O165     O      0.859470000000     0.930220000000     0.078480000000    -0.279324   
O166     O      0.183240000000     0.047800000000     0.058470000000    -0.273057   
O167     O      0.112890000000     0.957160000000     0.099610000000    -0.276478   
O168     O      0.158860000000     0.254550000000     0.995760000000    -0.278997   


