data_structure

_audit_creation_method RASPA-1.0
_audit_creation_date 2023-5-19
_audit_author_name 'Poobodin Mano'

_cell_length_a    31.0644
_cell_length_b    31.0283
_cell_length_c    28.1273
_cell_angle_alpha 90
_cell_angle_beta  90
_cell_angle_gamma 90
_cell_volume      27111.2

_symmetry_cell_setting          triclinic
_symmetry_space_group_name_Hall 'P 1'
_symmetry_space_group_name_H-M  'P 1'
_symmetry_Int_Tables_number     1

_symmetry_equiv_pos_as_xyz 'x,y,z'

loop_
_atom_site_label
_atom_site_type_symbol
_atom_site_fract_x
_atom_site_fract_y
_atom_site_fract_z
_atom_site_charge
C1       C      0.426200000000     0.424510000000     0.120770000000     0.398929   
C2       C      0.070450000000     0.072190000000     0.124240000000     0.403602   
C3       C      0.081470000000     0.419500000000     0.109680000000     0.397325   
C4       C      0.417680000000     0.081740000000     0.104240000000     0.397728   
C5       C      0.428670000000     0.068530000000     0.481010000000     0.399793   
C6       C      0.077490000000     0.424080000000     0.491350000000     0.40143    
C7       C      0.422050000000     0.418770000000     0.496170000000     0.391571   
C8       C      0.081870000000     0.079900000000     0.499860000000     0.401347   
C9       C      0.334850000000     0.331270000000     0.254410000000     0.403669   
C10      C      0.168070000000     0.167750000000     0.250390000000     0.397241   
C11      C      0.321190000000     0.177160000000     0.231390000000     0.403358   
C12      C      0.179480000000     0.322720000000     0.234550000000     0.406218   
C13      C      0.172990000000     0.327400000000     0.362900000000     0.393023   
C14      C      0.329960000000     0.168230000000     0.359460000000     0.393179   
C15      C      0.322990000000     0.318580000000     0.375280000000     0.39458    
C16      C      0.177610000000     0.176320000000     0.371740000000     0.391666   
C17      C      0.157860000000     0.105330000000     0.202630000000     0.0250341  
C18      C      0.100550000000     0.154020000000     0.213300000000    -0.0131036  
C19      C      0.132650000000     0.081170000000     0.171570000000     0.0333949  
C20      C      0.073920000000     0.128370000000     0.184420000000     0.151474   
C21      C      0.114550000000     0.165740000000     0.418530000000     0.0264154  
C22      C      0.173710000000     0.119230000000     0.428290000000    -0.0140155  
C23      C      0.091040000000     0.141440000000     0.451190000000     0.0335067  
C24      C      0.151300000000     0.096090000000     0.463550000000     0.150738   
C25      C      0.090960000000     0.357910000000     0.158820000000     0.0272196  
C26      C      0.149080000000     0.405270000000     0.146310000000    -0.0127733  
C27      C      0.116290000000     0.333340000000     0.189320000000     0.0338233  
C28      C      0.175780000000     0.379190000000     0.174650000000     0.150222   
C29      C      0.407940000000     0.144460000000     0.151790000000     0.0252878  
C30      C      0.350180000000     0.096360000000     0.140910000000    -0.0132759  
C31      C      0.383050000000     0.168620000000     0.183240000000     0.0334528  
C32      C      0.323860000000     0.122120000000     0.169980000000     0.150868   
C33      C      0.413640000000     0.357060000000     0.446350000000     0.0251048  
C34      C      0.353890000000     0.401300000000     0.462680000000    -0.0163086  
C35      C      0.387920000000     0.331090000000     0.417350000000     0.0328357  
C36      C      0.327140000000     0.373710000000     0.436240000000     0.149516   
C37      C      0.392940000000     0.157720000000     0.406330000000     0.0260852  
C38      C      0.344410000000     0.100290000000     0.395590000000    -0.0140465  
C39      C      0.418380000000     0.131740000000     0.435410000000     0.033198   
C40      C      0.371140000000     0.073020000000     0.422570000000     0.149672   
C41      C      0.109030000000     0.339440000000     0.407830000000     0.0262227  
C42      C      0.166690000000     0.388290000000     0.413760000000    -0.0162195  
C43      C      0.085730000000     0.363840000000     0.440600000000     0.0326407  
C44      C      0.145010000000     0.411210000000     0.449580000000     0.150146   
C45      C      0.364840000000     0.415480000000     0.170420000000     0.026256   
C46      C      0.424170000000     0.368910000000     0.179030000000    -0.0138449  
C47      C      0.342780000000     0.392630000000     0.205380000000     0.0318297  
C48      C      0.403210000000     0.347210000000     0.216300000000     0.15134    
C49      C      0.426200000000     0.424510000000     0.620770000000     0.39888    
C50      C      0.070450000000     0.072190000000     0.624240000000     0.403576   
C51      C      0.081470000000     0.419500000000     0.609680000000     0.397348   
C52      C      0.417680000000     0.081740000000     0.604240000000     0.397689   
C53      C      0.428670000000     0.068530000000     0.981010000000     0.399237   
C54      C      0.077490000000     0.424080000000     0.991350000000     0.400261   
C55      C      0.422050000000     0.418770000000     0.996170000000     0.390368   
C56      C      0.081870000000     0.079900000000     0.999860000000     0.400159   
C57      C      0.334850000000     0.331270000000     0.754410000000     0.403662   
C58      C      0.168070000000     0.167750000000     0.750390000000     0.397278   
C59      C      0.321190000000     0.177160000000     0.731390000000     0.40335    
C60      C      0.179480000000     0.322720000000     0.734550000000     0.406206   
C61      C      0.172990000000     0.327400000000     0.862900000000     0.393044   
C62      C      0.329960000000     0.168230000000     0.859460000000     0.393131   
C63      C      0.322990000000     0.318580000000     0.875280000000     0.394619   
C64      C      0.177610000000     0.176320000000     0.871750000000     0.3916     
C65      C      0.157860000000     0.105330000000     0.702630000000     0.0250147  
C66      C      0.100550000000     0.154020000000     0.713300000000    -0.0131129  
C67      C      0.132650000000     0.081170000000     0.671570000000     0.0333816  
C68      C      0.073920000000     0.128370000000     0.684420000000     0.151458   
C69      C      0.114550000000     0.165740000000     0.918530000000     0.0264181  
C70      C      0.173710000000     0.119230000000     0.928290000000    -0.0140118  
C71      C      0.091040000000     0.141440000000     0.951190000000     0.0333986  
C72      C      0.151300000000     0.096090000000     0.963550000000     0.15062    
C73      C      0.090960000000     0.357910000000     0.658820000000     0.0271984  
C74      C      0.149080000000     0.405270000000     0.646310000000    -0.0127887  
C75      C      0.116290000000     0.333340000000     0.689320000000     0.0338044  
C76      C      0.175780000000     0.379190000000     0.674650000000     0.150195   
C77      C      0.407940000000     0.144460000000     0.651790000000     0.0252609  
C78      C      0.350180000000     0.096360000000     0.640910000000    -0.0132966  
C79      C      0.383050000000     0.168620000000     0.683240000000     0.0334354  
C80      C      0.323860000000     0.122120000000     0.669980000000     0.150842   
C81      C      0.413640000000     0.357060000000     0.946350000000     0.0250053  
C82      C      0.353890000000     0.401300000000     0.962680000000    -0.0164034  
C83      C      0.387920000000     0.331090000000     0.917350000000     0.0328304  
C84      C      0.327140000000     0.373710000000     0.936240000000     0.149477   
C85      C      0.392940000000     0.157720000000     0.906320000000     0.0260847  
C86      C      0.344410000000     0.100290000000     0.895580000000    -0.0140323  
C87      C      0.418380000000     0.131740000000     0.935400000000     0.0331346  
C88      C      0.371140000000     0.073020000000     0.922570000000     0.149557   
C89      C      0.109030000000     0.339440000000     0.907840000000     0.0262122  
C90      C      0.166690000000     0.388290000000     0.913770000000    -0.0162592  
C91      C      0.085730000000     0.363840000000     0.940600000000     0.0325407  
C92      C      0.145010000000     0.411210000000     0.949580000000     0.15007    
C93      C      0.364840000000     0.415480000000     0.670420000000     0.0262354  
C94      C      0.424170000000     0.368910000000     0.679030000000    -0.0138531  
C95      C      0.342780000000     0.392630000000     0.705380000000     0.0318193  
C96      C      0.403210000000     0.347210000000     0.716300000000     0.151302   
C97      C      0.426200000000     0.924510000000     0.120770000000     0.398926   
C98      C      0.070450000000     0.572190000000     0.124240000000     0.403608   
C99      C      0.081470000000     0.919500000000     0.109680000000     0.397323   
C100     C      0.417680000000     0.581740000000     0.104240000000     0.397732   
C101     C      0.428670000000     0.568530000000     0.481010000000     0.399796   
C102     C      0.077490000000     0.924080000000     0.491350000000     0.401425   
C103     C      0.422050000000     0.918770000000     0.496170000000     0.391565   
C104     C      0.081870000000     0.579900000000     0.499860000000     0.401352   
C105     C      0.334850000000     0.831270000000     0.254410000000     0.403667   
C106     C      0.168070000000     0.667750000000     0.250390000000     0.397086   
C107     C      0.321190000000     0.677160000000     0.231390000000     0.403355   
C108     C      0.179480000000     0.822720000000     0.234550000000     0.406229   
C109     C      0.172990000000     0.827400000000     0.362900000000     0.393038   
C110     C      0.329960000000     0.668230000000     0.359460000000     0.393176   
C111     C      0.322990000000     0.818580000000     0.375280000000     0.394582   
C112     C      0.177610000000     0.676320000000     0.371740000000     0.391653   
C113     C      0.157860000000     0.605330000000     0.202630000000     0.0250238  
C114     C      0.100550000000     0.654020000000     0.213300000000    -0.013122   
C115     C      0.132650000000     0.581170000000     0.171570000000     0.0333938  
C116     C      0.073920000000     0.628370000000     0.184420000000     0.151488   
C117     C      0.114550000000     0.665740000000     0.418530000000     0.0264134  
C118     C      0.173710000000     0.619230000000     0.428290000000    -0.0140175  
C119     C      0.091040000000     0.641440000000     0.451190000000     0.0335049  
C120     C      0.151300000000     0.596090000000     0.463550000000     0.15073    
C121     C      0.090960000000     0.857920000000     0.158820000000     0.0272792  
C122     C      0.149080000000     0.905280000000     0.146310000000    -0.0127929  
C123     C      0.116290000000     0.833340000000     0.189320000000     0.0337948  
C124     C      0.175780000000     0.879190000000     0.174650000000     0.150221   
C125     C      0.407940000000     0.644460000000     0.151790000000     0.0252862  
C126     C      0.350180000000     0.596360000000     0.140910000000    -0.0132783  
C127     C      0.383050000000     0.668620000000     0.183240000000     0.0334518  
C128     C      0.323860000000     0.622120000000     0.169980000000     0.150862   
C129     C      0.413640000000     0.857060000000     0.446350000000     0.0251021  
C130     C      0.353890000000     0.901300000000     0.462680000000    -0.016314   
C131     C      0.387920000000     0.831090000000     0.417350000000     0.0328346  
C132     C      0.327140000000     0.873710000000     0.436240000000     0.149511   
C133     C      0.392940000000     0.657720000000     0.406330000000     0.0260849  
C134     C      0.344410000000     0.600290000000     0.395590000000    -0.0140465  
C135     C      0.418380000000     0.631740000000     0.435410000000     0.0331956  
C136     C      0.371140000000     0.573020000000     0.422570000000     0.149662   
C137     C      0.109030000000     0.839450000000     0.407830000000     0.0262615  
C138     C      0.166690000000     0.888290000000     0.413760000000    -0.0162191  
C139     C      0.085730000000     0.863840000000     0.440600000000     0.032613   
C140     C      0.145010000000     0.911210000000     0.449580000000     0.150135   
C141     C      0.364840000000     0.915480000000     0.170420000000     0.0262543  
C142     C      0.424170000000     0.868920000000     0.179030000000    -0.0137822  
C143     C      0.342780000000     0.892630000000     0.205380000000     0.0318241  
C144     C      0.403210000000     0.847200000000     0.216300000000     0.151325   
C145     C      0.426200000000     0.924510000000     0.620770000000     0.398877   
C146     C      0.070450000000     0.572190000000     0.624240000000     0.403582   
C147     C      0.081470000000     0.919500000000     0.609680000000     0.397346   
C148     C      0.417680000000     0.581740000000     0.604240000000     0.397693   
C149     C      0.428670000000     0.568530000000     0.981010000000     0.39924    
C150     C      0.077490000000     0.924080000000     0.991350000000     0.400257   
C151     C      0.422050000000     0.918770000000     0.996170000000     0.390362   
C152     C      0.081870000000     0.579900000000     0.999860000000     0.400164   
C153     C      0.334850000000     0.831270000000     0.754410000000     0.40366    
C154     C      0.168070000000     0.667750000000     0.750390000000     0.397123   
C155     C      0.321190000000     0.677160000000     0.731390000000     0.403347   
C156     C      0.179480000000     0.822720000000     0.734550000000     0.406217   
C157     C      0.172990000000     0.827400000000     0.862900000000     0.39306    
C158     C      0.329960000000     0.668230000000     0.859460000000     0.393128   
C159     C      0.322990000000     0.818580000000     0.875280000000     0.394621   
C160     C      0.177610000000     0.676320000000     0.871750000000     0.391587   
C161     C      0.157860000000     0.605330000000     0.702630000000     0.0250044  
C162     C      0.100550000000     0.654020000000     0.713300000000    -0.0131313  
C163     C      0.132650000000     0.581170000000     0.671570000000     0.0333805  
C164     C      0.073920000000     0.628370000000     0.684420000000     0.151472   
C165     C      0.114550000000     0.665740000000     0.918530000000     0.0264161  
C166     C      0.173710000000     0.619230000000     0.928290000000    -0.0140139  
C167     C      0.091040000000     0.641440000000     0.951190000000     0.0333968  
C168     C      0.151300000000     0.596090000000     0.963550000000     0.150613   
C169     C      0.090960000000     0.857920000000     0.658820000000     0.0272581  
C170     C      0.149080000000     0.905280000000     0.646310000000    -0.0128083  
C171     C      0.116290000000     0.833340000000     0.689320000000     0.0337758  
C172     C      0.175780000000     0.879190000000     0.674650000000     0.150193   
C173     C      0.407940000000     0.644460000000     0.651790000000     0.0252592  
C174     C      0.350180000000     0.596360000000     0.640910000000    -0.013299   
C175     C      0.383050000000     0.668620000000     0.683240000000     0.0334344  
C176     C      0.323860000000     0.622120000000     0.669980000000     0.150836   
C177     C      0.413640000000     0.857060000000     0.946350000000     0.0250026  
C178     C      0.353890000000     0.901300000000     0.962680000000    -0.0164088  
C179     C      0.387920000000     0.831090000000     0.917350000000     0.0328293  
C180     C      0.327140000000     0.873710000000     0.936240000000     0.149472   
C181     C      0.392940000000     0.657720000000     0.906320000000     0.0260843  
C182     C      0.344410000000     0.600290000000     0.895580000000    -0.0140323  
C183     C      0.418380000000     0.631740000000     0.935400000000     0.0331323  
C184     C      0.371140000000     0.573020000000     0.922570000000     0.149547   
C185     C      0.109030000000     0.839450000000     0.907840000000     0.026251   
C186     C      0.166690000000     0.888290000000     0.913770000000    -0.0162588  
C187     C      0.085730000000     0.863840000000     0.940600000000     0.0325129  
C188     C      0.145010000000     0.911210000000     0.949580000000     0.150058   
C189     C      0.364840000000     0.915480000000     0.670420000000     0.0262337  
C190     C      0.424170000000     0.868920000000     0.679030000000    -0.0137903  
C191     C      0.342780000000     0.892630000000     0.705380000000     0.0318136  
C192     C      0.403210000000     0.847200000000     0.716300000000     0.151288   
C193     C      0.926200000000     0.424510000000     0.120770000000     0.398922   
C194     C      0.570450000000     0.072190000000     0.124240000000     0.403514   
C195     C      0.581470000000     0.419500000000     0.109680000000     0.397327   
C196     C      0.917680000000     0.081740000000     0.104240000000     0.397583   
C197     C      0.928670000000     0.068530000000     0.481010000000     0.399797   
C198     C      0.577490000000     0.424080000000     0.491350000000     0.401299   
C199     C      0.922050000000     0.418770000000     0.496170000000     0.391569   
C200     C      0.581870000000     0.079900000000     0.499860000000     0.401342   
C201     C      0.834850000000     0.331270000000     0.254410000000     0.403668   
C202     C      0.668070000000     0.167750000000     0.250390000000     0.397161   
C203     C      0.821190000000     0.177160000000     0.231390000000     0.403356   
C204     C      0.679470000000     0.322720000000     0.234550000000     0.406198   
C205     C      0.672990000000     0.327400000000     0.362900000000     0.393024   
C206     C      0.829960000000     0.168230000000     0.359460000000     0.39326    
C207     C      0.822990000000     0.318580000000     0.375280000000     0.394576   
C208     C      0.677610000000     0.176320000000     0.371740000000     0.391669   
C209     C      0.657850000000     0.105330000000     0.202630000000     0.0251001  
C210     C      0.600550000000     0.154020000000     0.213300000000    -0.0131206  
C211     C      0.632650000000     0.081170000000     0.171570000000     0.0333131  
C212     C      0.573920000000     0.128370000000     0.184420000000     0.151515   
C213     C      0.614550000000     0.165740000000     0.418530000000     0.0264182  
C214     C      0.673710000000     0.119230000000     0.428290000000    -0.0140144  
C215     C      0.591040000000     0.141440000000     0.451190000000     0.0335082  
C216     C      0.651300000000     0.096090000000     0.463550000000     0.150738   
C217     C      0.590960000000     0.357910000000     0.158820000000     0.0272285  
C218     C      0.649090000000     0.405270000000     0.146310000000    -0.012867   
C219     C      0.616290000000     0.333340000000     0.189320000000     0.0338095  
C220     C      0.675780000000     0.379190000000     0.174650000000     0.150276   
C221     C      0.907940000000     0.144460000000     0.151790000000     0.0252803  
C222     C      0.850180000000     0.096360000000     0.140910000000    -0.0132802  
C223     C      0.883050000000     0.168620000000     0.183240000000     0.0334589  
C224     C      0.823860000000     0.122120000000     0.169980000000     0.15087    
C225     C      0.913640000000     0.357060000000     0.446350000000     0.02511    
C226     C      0.853900000000     0.401300000000     0.462680000000    -0.0162181  
C227     C      0.887920000000     0.331090000000     0.417350000000     0.032832   
C228     C      0.827140000000     0.373710000000     0.436240000000     0.149473   
C229     C      0.892940000000     0.157720000000     0.406330000000     0.0260648  
C230     C      0.844410000000     0.100290000000     0.395590000000    -0.0140453  
C231     C      0.918370000000     0.131740000000     0.435410000000     0.0332364  
C232     C      0.871140000000     0.073020000000     0.422570000000     0.149674   
C233     C      0.609030000000     0.339440000000     0.407830000000     0.0262285  
C234     C      0.666690000000     0.388290000000     0.413760000000    -0.016217   
C235     C      0.585730000000     0.363840000000     0.440600000000     0.032635   
C236     C      0.645010000000     0.411210000000     0.449580000000     0.150144   
C237     C      0.864840000000     0.415480000000     0.170420000000     0.0262382  
C238     C      0.924170000000     0.368910000000     0.179030000000    -0.0138448  
C239     C      0.842780000000     0.392630000000     0.205380000000     0.0318394  
C240     C      0.903210000000     0.347210000000     0.216300000000     0.151345   
C241     C      0.926200000000     0.424510000000     0.620770000000     0.398872   
C242     C      0.570450000000     0.072190000000     0.624240000000     0.403488   
C243     C      0.581470000000     0.419500000000     0.609680000000     0.39735    
C244     C      0.917680000000     0.081740000000     0.604240000000     0.397544   
C245     C      0.928670000000     0.068530000000     0.981010000000     0.399241   
C246     C      0.577490000000     0.424080000000     0.991350000000     0.400132   
C247     C      0.922050000000     0.418770000000     0.996170000000     0.390366   
C248     C      0.581870000000     0.079900000000     0.999860000000     0.400154   
C249     C      0.834850000000     0.331270000000     0.754410000000     0.40366    
C250     C      0.668070000000     0.167750000000     0.750390000000     0.397198   
C251     C      0.821190000000     0.177160000000     0.731390000000     0.403349   
C252     C      0.679470000000     0.322720000000     0.734550000000     0.406185   
C253     C      0.672990000000     0.327400000000     0.862900000000     0.393046   
C254     C      0.829960000000     0.168230000000     0.859460000000     0.393211   
C255     C      0.822990000000     0.318580000000     0.875280000000     0.394615   
C256     C      0.677610000000     0.176320000000     0.871750000000     0.391603   
C257     C      0.657850000000     0.105330000000     0.702630000000     0.0250807  
C258     C      0.600550000000     0.154020000000     0.713300000000    -0.0131299  
C259     C      0.632650000000     0.081170000000     0.671570000000     0.0332999  
C260     C      0.573920000000     0.128370000000     0.684420000000     0.1515     
C261     C      0.614550000000     0.165740000000     0.918530000000     0.0264209  
C262     C      0.673710000000     0.119230000000     0.928290000000    -0.0140107  
C263     C      0.591040000000     0.141440000000     0.951190000000     0.0334     
C264     C      0.651300000000     0.096090000000     0.963550000000     0.15062    
C265     C      0.590960000000     0.357910000000     0.658820000000     0.0272073  
C266     C      0.649090000000     0.405270000000     0.646310000000    -0.0128824  
C267     C      0.616290000000     0.333340000000     0.689320000000     0.0337905  
C268     C      0.675780000000     0.379190000000     0.674650000000     0.150249   
C269     C      0.907940000000     0.144460000000     0.651790000000     0.0252533  
C270     C      0.850180000000     0.096360000000     0.640910000000    -0.0133008  
C271     C      0.883050000000     0.168620000000     0.683240000000     0.0334415  
C272     C      0.823860000000     0.122120000000     0.669980000000     0.150844   
C273     C      0.913640000000     0.357060000000     0.946350000000     0.0250105  
C274     C      0.853900000000     0.401300000000     0.962680000000    -0.0163129  
C275     C      0.887920000000     0.331090000000     0.917350000000     0.0328267  
C276     C      0.827140000000     0.373710000000     0.936240000000     0.149433   
C277     C      0.892940000000     0.157720000000     0.906320000000     0.0260642  
C278     C      0.844410000000     0.100290000000     0.895580000000    -0.0140311  
C279     C      0.918370000000     0.131740000000     0.935400000000     0.033173   
C280     C      0.871140000000     0.073020000000     0.922570000000     0.149559   
C281     C      0.609030000000     0.339440000000     0.907840000000     0.0262179  
C282     C      0.666690000000     0.388290000000     0.913770000000    -0.0162566  
C283     C      0.585730000000     0.363840000000     0.940600000000     0.032535   
C284     C      0.645010000000     0.411210000000     0.949580000000     0.150067   
C285     C      0.864840000000     0.415480000000     0.670420000000     0.0262176  
C286     C      0.924170000000     0.368910000000     0.679030000000    -0.013853   
C287     C      0.842780000000     0.392630000000     0.705380000000     0.031829   
C288     C      0.903210000000     0.347210000000     0.716300000000     0.151308   
C289     C      0.926200000000     0.924510000000     0.120770000000     0.398918   
C290     C      0.570450000000     0.572190000000     0.124240000000     0.40352    
C291     C      0.581470000000     0.919500000000     0.109680000000     0.397325   
C292     C      0.917680000000     0.581740000000     0.104240000000     0.397587   
C293     C      0.928670000000     0.568530000000     0.481010000000     0.3998     
C294     C      0.577490000000     0.924080000000     0.491350000000     0.401295   
C295     C      0.922050000000     0.918770000000     0.496170000000     0.391563   
C296     C      0.581870000000     0.579900000000     0.499860000000     0.401347   
C297     C      0.834850000000     0.831270000000     0.254410000000     0.403666   
C298     C      0.668070000000     0.667750000000     0.250390000000     0.397006   
C299     C      0.821190000000     0.677160000000     0.231390000000     0.403353   
C300     C      0.679470000000     0.822720000000     0.234550000000     0.406209   
C301     C      0.672990000000     0.827400000000     0.362900000000     0.39304    
C302     C      0.829960000000     0.668230000000     0.359460000000     0.393257   
C303     C      0.822990000000     0.818580000000     0.375280000000     0.394578   
C304     C      0.677610000000     0.676320000000     0.371740000000     0.391656   
C305     C      0.657850000000     0.605330000000     0.202630000000     0.0250898  
C306     C      0.600550000000     0.654020000000     0.213300000000    -0.013139   
C307     C      0.632650000000     0.581170000000     0.171570000000     0.033312   
C308     C      0.573920000000     0.628370000000     0.184420000000     0.15153    
C309     C      0.614550000000     0.665740000000     0.418530000000     0.0264162  
C310     C      0.673710000000     0.619230000000     0.428290000000    -0.0140165  
C311     C      0.591040000000     0.641440000000     0.451190000000     0.0335064  
C312     C      0.651300000000     0.596090000000     0.463550000000     0.15073    
C313     C      0.590960000000     0.857920000000     0.158820000000     0.0272882  
C314     C      0.649090000000     0.905280000000     0.146310000000    -0.0128866  
C315     C      0.616290000000     0.833340000000     0.189320000000     0.033781   
C316     C      0.675780000000     0.879190000000     0.174650000000     0.150275   
C317     C      0.907940000000     0.644460000000     0.151790000000     0.0252786  
C318     C      0.850180000000     0.596360000000     0.140910000000    -0.0132826  
C319     C      0.883050000000     0.668620000000     0.183240000000     0.0334579  
C320     C      0.823860000000     0.622120000000     0.169980000000     0.150864   
C321     C      0.913640000000     0.857060000000     0.446350000000     0.0251073  
C322     C      0.853900000000     0.901300000000     0.462680000000    -0.0162235  
C323     C      0.887920000000     0.831090000000     0.417350000000     0.0328309  
C324     C      0.827140000000     0.873710000000     0.436240000000     0.149468   
C325     C      0.892940000000     0.657720000000     0.406330000000     0.0260644  
C326     C      0.844410000000     0.600290000000     0.395590000000    -0.0140453  
C327     C      0.918370000000     0.631740000000     0.435410000000     0.033234   
C328     C      0.871140000000     0.573020000000     0.422570000000     0.149664   
C329     C      0.609030000000     0.839450000000     0.407830000000     0.0262672  
C330     C      0.666690000000     0.888290000000     0.413760000000    -0.0162166  
C331     C      0.585730000000     0.863840000000     0.440600000000     0.0326072  
C332     C      0.645010000000     0.911210000000     0.449580000000     0.150133   
C333     C      0.864840000000     0.915480000000     0.170420000000     0.0262364  
C334     C      0.924170000000     0.868920000000     0.179030000000    -0.0137821  
C335     C      0.842780000000     0.892630000000     0.205380000000     0.0318337  
C336     C      0.903210000000     0.847200000000     0.216300000000     0.151331   
C337     C      0.926200000000     0.924510000000     0.620770000000     0.398869   
C338     C      0.570450000000     0.572190000000     0.624240000000     0.403494   
C339     C      0.581470000000     0.919500000000     0.609680000000     0.397348   
C340     C      0.917680000000     0.581740000000     0.604240000000     0.397548   
C341     C      0.928670000000     0.568530000000     0.981010000000     0.399244   
C342     C      0.577490000000     0.924080000000     0.991350000000     0.400128   
C343     C      0.922050000000     0.918770000000     0.996170000000     0.39036    
C344     C      0.581870000000     0.579900000000     0.999860000000     0.400159   
C345     C      0.834850000000     0.831270000000     0.754410000000     0.403658   
C346     C      0.668070000000     0.667750000000     0.750390000000     0.397043   
C347     C      0.821190000000     0.677160000000     0.731390000000     0.403345   
C348     C      0.679470000000     0.822720000000     0.734550000000     0.406197   
C349     C      0.672990000000     0.827400000000     0.862900000000     0.393062   
C350     C      0.829960000000     0.668230000000     0.859460000000     0.393209   
C351     C      0.822990000000     0.818580000000     0.875280000000     0.394617   
C352     C      0.677610000000     0.676320000000     0.871750000000     0.39159    
C353     C      0.657850000000     0.605330000000     0.702630000000     0.0250703  
C354     C      0.600550000000     0.654020000000     0.713300000000    -0.0131483  
C355     C      0.632650000000     0.581170000000     0.671570000000     0.0332987  
C356     C      0.573920000000     0.628370000000     0.684420000000     0.151514   
C357     C      0.614550000000     0.665740000000     0.918530000000     0.0264189  
C358     C      0.673710000000     0.619230000000     0.928290000000    -0.0140128  
C359     C      0.591040000000     0.641440000000     0.951190000000     0.0333983  
C360     C      0.651300000000     0.596090000000     0.963550000000     0.150613   
C361     C      0.590960000000     0.857920000000     0.658820000000     0.027267   
C362     C      0.649090000000     0.905280000000     0.646310000000    -0.012902   
C363     C      0.616290000000     0.833340000000     0.689320000000     0.033762   
C364     C      0.675780000000     0.879190000000     0.674650000000     0.150247   
C365     C      0.907940000000     0.644460000000     0.651790000000     0.0252516  
C366     C      0.850180000000     0.596360000000     0.640910000000    -0.0133032  
C367     C      0.883050000000     0.668620000000     0.683240000000     0.0334405  
C368     C      0.823860000000     0.622120000000     0.669980000000     0.150838   
C369     C      0.913640000000     0.857060000000     0.946350000000     0.0250078  
C370     C      0.853900000000     0.901300000000     0.962680000000    -0.0163183  
C371     C      0.887920000000     0.831090000000     0.917350000000     0.0328256  
C372     C      0.827140000000     0.873710000000     0.936240000000     0.149428   
C373     C      0.892940000000     0.657720000000     0.906320000000     0.0260639  
C374     C      0.844410000000     0.600290000000     0.895580000000    -0.0140311  
C375     C      0.918370000000     0.631740000000     0.935400000000     0.0331707  
C376     C      0.871140000000     0.573020000000     0.922570000000     0.149549   
C377     C      0.609030000000     0.839450000000     0.907840000000     0.0262567  
C378     C      0.666690000000     0.888290000000     0.913770000000    -0.0162562  
C379     C      0.585730000000     0.863840000000     0.940600000000     0.0325072  
C380     C      0.645010000000     0.911210000000     0.949580000000     0.150056   
C381     C      0.864840000000     0.915480000000     0.670420000000     0.0262159  
C382     C      0.924170000000     0.868920000000     0.679030000000    -0.0137902  
C383     C      0.842780000000     0.892630000000     0.705380000000     0.0318233  
C384     C      0.903210000000     0.847200000000     0.716300000000     0.151293   
Co1      Co     0.435750000000     0.998710000000     0.053950000000     0.847985   
Co2      Co     0.063380000000     0.499620000000     0.554820000000     0.838481   
Co3      Co     0.500740000000     0.435320000000     0.054530000000     0.837554   
Co4      Co     0.499860000000     0.063230000000     0.552870000000     0.840419   
Co5      Co     0.251640000000     0.312480000000     0.303880000000     0.842275   
Co6      Co     0.250360000000     0.184890000000     0.302510000000     0.840586   
Co7      Co     0.314520000000     0.248280000000     0.303020000000     0.835471   
Co8      Co     0.186780000000     0.249100000000     0.302790000000     0.841954   
Co9      Co     0.435750000000     0.998710000000     0.553950000000     0.84805    
Co10     Co     0.063380000000     0.499620000000     0.054820000000     0.838407   
Co11     Co     0.500740000000     0.435320000000     0.554540000000     0.837641   
Co12     Co     0.499860000000     0.063230000000     0.052870000000     0.840649   
Co13     Co     0.251640000000     0.312480000000     0.803880000000     0.842273   
Co14     Co     0.250360000000     0.184890000000     0.802510000000     0.840614   
Co15     Co     0.314520000000     0.248280000000     0.803020000000     0.835464   
Co16     Co     0.186780000000     0.249100000000     0.802790000000     0.841906   
Co17     Co     0.435750000000     0.498710000000     0.053950000000     0.848119   
Co18     Co     0.063380000000     0.999620000000     0.554820000000     0.838345   
Co19     Co     0.500740000000     0.935320000000     0.054530000000     0.837568   
Co20     Co     0.499860000000     0.563230000000     0.552870000000     0.840326   
Co21     Co     0.251640000000     0.812480000000     0.303880000000     0.842331   
Co22     Co     0.250360000000     0.684890000000     0.302510000000     0.840519   
Co23     Co     0.314520000000     0.748280000000     0.303020000000     0.835473   
Co24     Co     0.186780000000     0.749110000000     0.302790000000     0.84198    
Co25     Co     0.435750000000     0.498710000000     0.553950000000     0.848184   
Co26     Co     0.063380000000     0.999620000000     0.054820000000     0.838272   
Co27     Co     0.500740000000     0.935320000000     0.554540000000     0.837654   
Co28     Co     0.499860000000     0.563230000000     0.052870000000     0.840556   
Co29     Co     0.251640000000     0.812480000000     0.803880000000     0.842328   
Co30     Co     0.250360000000     0.684890000000     0.802510000000     0.840547   
Co31     Co     0.314520000000     0.748280000000     0.803020000000     0.835466   
Co32     Co     0.186780000000     0.749110000000     0.802790000000     0.841932   
Co33     Co     0.935750000000     0.998710000000     0.053950000000     0.847988   
Co34     Co     0.563380000000     0.499620000000     0.554820000000     0.838502   
Co35     Co     0.000740000000     0.435320000000     0.054530000000     0.837432   
Co36     Co     0.999860000000     0.063230000000     0.552870000000     0.840497   
Co37     Co     0.751640000000     0.312480000000     0.303880000000     0.842265   
Co38     Co     0.750360000000     0.184890000000     0.302510000000     0.840587   
Co39     Co     0.814520000000     0.248280000000     0.303020000000     0.83543    
Co40     Co     0.686780000000     0.249100000000     0.302790000000     0.842004   
Co41     Co     0.935750000000     0.998710000000     0.553950000000     0.848053   
Co42     Co     0.563380000000     0.499620000000     0.054820000000     0.838428   
Co43     Co     0.000740000000     0.435320000000     0.554540000000     0.837519   
Co44     Co     0.999860000000     0.063230000000     0.052870000000     0.840727   
Co45     Co     0.751640000000     0.312480000000     0.803880000000     0.842262   
Co46     Co     0.750360000000     0.184890000000     0.802510000000     0.840615   
Co47     Co     0.814520000000     0.248280000000     0.803020000000     0.835423   
Co48     Co     0.686780000000     0.249100000000     0.802790000000     0.841955   
Co49     Co     0.935750000000     0.498710000000     0.053950000000     0.848122   
Co50     Co     0.563380000000     0.999620000000     0.554820000000     0.838367   
Co51     Co     0.000740000000     0.935320000000     0.054530000000     0.837446   
Co52     Co     0.999860000000     0.563230000000     0.552870000000     0.840404   
Co53     Co     0.751640000000     0.812480000000     0.303880000000     0.84232    
Co54     Co     0.750360000000     0.684890000000     0.302510000000     0.84052    
Co55     Co     0.814520000000     0.748280000000     0.303020000000     0.835432   
Co56     Co     0.686780000000     0.749110000000     0.302790000000     0.84203    
Co57     Co     0.935750000000     0.498710000000     0.553950000000     0.848187   
Co58     Co     0.563380000000     0.999620000000     0.054820000000     0.838293   
Co59     Co     0.000740000000     0.935320000000     0.554540000000     0.837532   
Co60     Co     0.999860000000     0.563230000000     0.052870000000     0.840634   
Co61     Co     0.751640000000     0.812480000000     0.803880000000     0.842318   
Co62     Co     0.750360000000     0.684890000000     0.802510000000     0.840548   
Co63     Co     0.814520000000     0.748280000000     0.803020000000     0.835425   
Co64     Co     0.686780000000     0.749110000000     0.802790000000     0.841981   
H1       H      0.147680000000     0.053310000000     0.155220000000     0.0403906  
H2       H      0.190450000000     0.094410000000     0.209320000000     0.0416188  
H3       H      0.086540000000     0.182050000000     0.230440000000     0.0563136  
H4       H      0.018570000000     0.163890000000     0.202030000000     0.0929019  
H5       H      0.007810000000     0.114800000000     0.173050000000     0.115533   
H6       H      0.058060000000     0.151280000000     0.457700000000     0.0441917  
H7       H      0.098790000000     0.193240000000     0.402310000000     0.0453768  
H8       H      0.206830000000     0.110350000000     0.420890000000     0.0561234  
H9       H      0.163940000000     0.055950000000     0.523200000000     0.112323   
H10      H      0.206180000000     0.060200000000     0.482000000000     0.0910447  
H11      H      0.100980000000     0.305930000000     0.206270000000     0.0431034  
H12      H      0.057930000000     0.347790000000     0.153200000000     0.044127   
H13      H      0.163330000000     0.432870000000     0.128550000000     0.0520435  
H14      H      0.231410000000     0.413620000000     0.155560000000     0.090801   
H15      H      0.241900000000     0.364430000000     0.184390000000     0.113112   
H16      H      0.398320000000     0.196220000000     0.199840000000     0.0432033  
H17      H      0.440610000000     0.155130000000     0.145060000000     0.0417523  
H18      H      0.335860000000     0.068620000000     0.123520000000     0.055532   
H19      H      0.268030000000     0.087630000000     0.151740000000     0.0914396  
H20      H      0.257950000000     0.136610000000     0.181270000000     0.115005   
H21      H      0.403540000000     0.304580000000     0.399050000000     0.0408939  
H22      H      0.447380000000     0.348700000000     0.449940000000     0.043601   
H23      H      0.339060000000     0.428020000000     0.481450000000     0.0540165  
H24      H      0.261860000000     0.354780000000     0.430930000000     0.110677   
H25      H      0.270750000000     0.404430000000     0.459800000000     0.0877455  
H26      H      0.446610000000     0.146520000000     0.451180000000     0.0439312  
H27      H      0.403350000000     0.190640000000     0.400370000000     0.0447907  
H28      H      0.316010000000     0.086480000000     0.379060000000     0.05665    
H29      H      0.384960000000     0.006580000000     0.431970000000     0.113737   
H30      H      0.335120000000     0.017930000000     0.405020000000     0.0939232  
H31      H      0.053280000000     0.353180000000     0.448650000000     0.0431739  
H32      H      0.093860000000     0.310910000000     0.393180000000     0.044322   
H33      H      0.198930000000     0.398590000000     0.404330000000     0.0549108  
H34      H      0.159930000000     0.451940000000     0.508280000000     0.115581   
H35      H      0.199290000000     0.449540000000     0.463850000000     0.0882558  
H36      H      0.310260000000     0.403020000000     0.213410000000     0.0404457  
H37      H      0.348600000000     0.442630000000     0.154040000000     0.0429569  
H38      H      0.456980000000     0.359670000000     0.170500000000     0.0564386  
H39      H      0.417340000000     0.308920000000     0.276860000000     0.114413   
H40      H      0.458620000000     0.311880000000     0.234120000000     0.0928686  
H41      H      0.147680000000     0.053310000000     0.655220000000     0.0403763  
H42      H      0.190450000000     0.094410000000     0.709320000000     0.0416177  
H43      H      0.086540000000     0.182050000000     0.730440000000     0.0563081  
H44      H      0.018570000000     0.163890000000     0.702020000000     0.0929143  
H45      H      0.007810000000     0.114800000000     0.673050000000     0.115535   
H46      H      0.058060000000     0.151280000000     0.957700000000     0.0441174  
H47      H      0.098790000000     0.193240000000     0.902310000000     0.045349   
H48      H      0.206830000000     0.110350000000     0.920890000000     0.0560862  
H49      H      0.163940000000     0.055950000000     0.023200000000     0.11266    
H50      H      0.206180000000     0.060200000000     0.981990000000     0.0909476  
H51      H      0.100980000000     0.305930000000     0.706270000000     0.0430919  
H52      H      0.057930000000     0.347790000000     0.653200000000     0.0441049  
H53      H      0.163330000000     0.432870000000     0.628550000000     0.0520157  
H54      H      0.231410000000     0.413620000000     0.655560000000     0.0907624  
H55      H      0.241900000000     0.364430000000     0.684390000000     0.113085   
H56      H      0.398320000000     0.196220000000     0.699840000000     0.0431907  
H57      H      0.440610000000     0.155130000000     0.645060000000     0.0417229  
H58      H      0.335860000000     0.068620000000     0.623520000000     0.055493   
H59      H      0.268030000000     0.087630000000     0.651740000000     0.0914003  
H60      H      0.257950000000     0.136610000000     0.681270000000     0.114978   
H61      H      0.403540000000     0.304580000000     0.899050000000     0.0408714  
H62      H      0.447380000000     0.348700000000     0.949940000000     0.0435194  
H63      H      0.339060000000     0.428020000000     0.981450000000     0.0539043  
H64      H      0.261860000000     0.354780000000     0.930930000000     0.110634   
H65      H      0.270750000000     0.404430000000     0.959800000000     0.0876722  
H66      H      0.446610000000     0.146520000000     0.951180000000     0.0438811  
H67      H      0.403350000000     0.190640000000     0.900370000000     0.0447568  
H68      H      0.316010000000     0.086480000000     0.879060000000     0.0566302  
H69      H      0.384960000000     0.006580000000     0.931980000000     0.113622   
H70      H      0.335120000000     0.017930000000     0.905020000000     0.0938934  
H71      H      0.053280000000     0.353180000000     0.948650000000     0.0430875  
H72      H      0.093860000000     0.310910000000     0.893180000000     0.0443043  
H73      H      0.198930000000     0.398590000000     0.904320000000     0.054918   
H74      H      0.159930000000     0.451940000000     0.008280000000     0.115929   
H75      H      0.199290000000     0.449540000000     0.963850000000     0.0882008  
H76      H      0.310260000000     0.403020000000     0.713410000000     0.0404411  
H77      H      0.348600000000     0.442630000000     0.654040000000     0.0429307  
H78      H      0.456980000000     0.359670000000     0.670500000000     0.0564218  
H79      H      0.417340000000     0.308920000000     0.776860000000     0.114458   
H80      H      0.458620000000     0.311880000000     0.734120000000     0.0928513  
H81      H      0.147680000000     0.553310000000     0.155220000000     0.0403744  
H82      H      0.190450000000     0.594410000000     0.209320000000     0.0416146  
H83      H      0.086540000000     0.682050000000     0.230440000000     0.0563154  
H84      H      0.018570000000     0.663890000000     0.202030000000     0.0928609  
H85      H      0.007810000000     0.614800000000     0.173050000000     0.11556    
H86      H      0.058060000000     0.651280000000     0.457700000000     0.0441912  
H87      H      0.098790000000     0.693240000000     0.402310000000     0.0453761  
H88      H      0.206830000000     0.610350000000     0.420890000000     0.0561189  
H89      H      0.163940000000     0.555950000000     0.523200000000     0.112308   
H90      H      0.206180000000     0.560200000000     0.482000000000     0.0910289  
H91      H      0.100980000000     0.805930000000     0.206270000000     0.0431113  
H92      H      0.057930000000     0.847790000000     0.153200000000     0.0441065  
H93      H      0.163330000000     0.932870000000     0.128550000000     0.0520392  
H94      H      0.231410000000     0.913620000000     0.155560000000     0.0907909  
H95      H      0.241900000000     0.864430000000     0.184390000000     0.113111   
H96      H      0.398320000000     0.696220000000     0.199840000000     0.0432033  
H97      H      0.440610000000     0.655130000000     0.145060000000     0.0417513  
H98      H      0.335860000000     0.568620000000     0.123520000000     0.055519   
H99      H      0.268030000000     0.587630000000     0.151740000000     0.0914292  
H100     H      0.257950000000     0.636610000000     0.181270000000     0.115004   
H101     H      0.403540000000     0.804580000000     0.399050000000     0.0408936  
H102     H      0.447380000000     0.848700000000     0.449940000000     0.0435999  
H103     H      0.339060000000     0.928020000000     0.481450000000     0.0540033  
H104     H      0.261860000000     0.854780000000     0.430930000000     0.110677   
H105     H      0.270750000000     0.904430000000     0.459800000000     0.0877375  
H106     H      0.446610000000     0.646520000000     0.451180000000     0.0439313  
H107     H      0.403350000000     0.690640000000     0.400370000000     0.0447908  
H108     H      0.316010000000     0.586480000000     0.379060000000     0.0566421  
H109     H      0.384960000000     0.506580000000     0.431970000000     0.113708   
H110     H      0.335120000000     0.517930000000     0.405020000000     0.0938988  
H111     H      0.053280000000     0.853180000000     0.448650000000     0.0431791  
H112     H      0.093860000000     0.810910000000     0.393180000000     0.0443127  
H113     H      0.198930000000     0.898590000000     0.404330000000     0.0549037  
H114     H      0.159930000000     0.951940000000     0.508280000000     0.115567   
H115     H      0.199290000000     0.949540000000     0.463850000000     0.0882385  
H116     H      0.310260000000     0.903020000000     0.213410000000     0.0404386  
H117     H      0.348600000000     0.942630000000     0.154040000000     0.042942   
H118     H      0.456980000000     0.859680000000     0.170500000000     0.0564191  
H119     H      0.417340000000     0.808920000000     0.276860000000     0.114414   
H120     H      0.458620000000     0.811880000000     0.234120000000     0.0928694  
H121     H      0.147680000000     0.553310000000     0.655220000000     0.0403602  
H122     H      0.190450000000     0.594410000000     0.709320000000     0.0416135  
H123     H      0.086540000000     0.682050000000     0.730440000000     0.0563098  
H124     H      0.018570000000     0.663890000000     0.702020000000     0.0928733  
H125     H      0.007810000000     0.614800000000     0.673050000000     0.115563   
H126     H      0.058060000000     0.651280000000     0.957700000000     0.0441168  
H127     H      0.098790000000     0.693240000000     0.902310000000     0.0453483  
H128     H      0.206830000000     0.610350000000     0.920890000000     0.0560816  
H129     H      0.163940000000     0.555950000000     0.023200000000     0.112645   
H130     H      0.206180000000     0.560200000000     0.981990000000     0.0909319  
H131     H      0.100980000000     0.805930000000     0.706270000000     0.0430998  
H132     H      0.057930000000     0.847790000000     0.653200000000     0.0440844  
H133     H      0.163330000000     0.932870000000     0.628550000000     0.0520114  
H134     H      0.231410000000     0.913620000000     0.655560000000     0.0907523  
H135     H      0.241900000000     0.864430000000     0.684390000000     0.113084   
H136     H      0.398320000000     0.696220000000     0.699840000000     0.0431907  
H137     H      0.440610000000     0.655130000000     0.645060000000     0.041722   
H138     H      0.335860000000     0.568620000000     0.623520000000     0.05548    
H139     H      0.268030000000     0.587630000000     0.651740000000     0.09139    
H140     H      0.257950000000     0.636610000000     0.681270000000     0.114977   
H141     H      0.403540000000     0.804580000000     0.899050000000     0.0408711  
H142     H      0.447380000000     0.848700000000     0.949940000000     0.0435183  
H143     H      0.339060000000     0.928020000000     0.981450000000     0.0538911  
H144     H      0.261860000000     0.854780000000     0.930930000000     0.110634   
H145     H      0.270750000000     0.904430000000     0.959800000000     0.0876642  
H146     H      0.446610000000     0.646520000000     0.951180000000     0.0438813  
H147     H      0.403350000000     0.690640000000     0.900370000000     0.044757   
H148     H      0.316010000000     0.586480000000     0.879060000000     0.0566224  
H149     H      0.384960000000     0.506580000000     0.931980000000     0.113593   
H150     H      0.335120000000     0.517930000000     0.905020000000     0.0938689  
H151     H      0.053280000000     0.853180000000     0.948650000000     0.0430928  
H152     H      0.093860000000     0.810910000000     0.893180000000     0.044295   
H153     H      0.198930000000     0.898590000000     0.904320000000     0.0549109  
H154     H      0.159930000000     0.951940000000     0.008280000000     0.115915   
H155     H      0.199290000000     0.949540000000     0.963850000000     0.0881835  
H156     H      0.310260000000     0.903020000000     0.713410000000     0.0404339  
H157     H      0.348600000000     0.942630000000     0.654040000000     0.0429158  
H158     H      0.456980000000     0.859680000000     0.670500000000     0.0564024  
H159     H      0.417340000000     0.808920000000     0.776860000000     0.114459   
H160     H      0.458620000000     0.811880000000     0.734120000000     0.0928521  
H161     H      0.647680000000     0.053310000000     0.155220000000     0.0404135  
H162     H      0.690450000000     0.094410000000     0.209320000000     0.0416035  
H163     H      0.586540000000     0.182050000000     0.230440000000     0.0563285  
H164     H      0.518570000000     0.163890000000     0.202030000000     0.092926   
H165     H      0.507820000000     0.114800000000     0.173050000000     0.115597   
H166     H      0.558060000000     0.151280000000     0.457700000000     0.0442014  
H167     H      0.598790000000     0.193240000000     0.402310000000     0.0453819  
H168     H      0.706830000000     0.110350000000     0.420890000000     0.0561233  
H169     H      0.663940000000     0.055950000000     0.523200000000     0.112321   
H170     H      0.706180000000     0.060200000000     0.482000000000     0.0910441  
H171     H      0.600990000000     0.305930000000     0.206270000000     0.0431152  
H172     H      0.557930000000     0.347790000000     0.153200000000     0.0441358  
H173     H      0.663330000000     0.432870000000     0.128550000000     0.052076   
H174     H      0.731410000000     0.413620000000     0.155560000000     0.0908031  
H175     H      0.741900000000     0.364430000000     0.184390000000     0.113115   
H176     H      0.898320000000     0.196220000000     0.199840000000     0.043207   
H177     H      0.940610000000     0.155130000000     0.145060000000     0.0417653  
H178     H      0.835860000000     0.068620000000     0.123520000000     0.0555341  
H179     H      0.768030000000     0.087630000000     0.151740000000     0.0914392  
H180     H      0.757950000000     0.136610000000     0.181270000000     0.115004   
H181     H      0.903540000000     0.304580000000     0.399050000000     0.0408992  
H182     H      0.947380000000     0.348700000000     0.449940000000     0.0436098  
H183     H      0.839060000000     0.428020000000     0.481450000000     0.0539804  
H184     H      0.761860000000     0.354780000000     0.430930000000     0.110682   
H185     H      0.770760000000     0.404430000000     0.459800000000     0.0877652  
H186     H      0.946610000000     0.146520000000     0.451180000000     0.0439329  
H187     H      0.903350000000     0.190640000000     0.400370000000     0.0447957  
H188     H      0.816010000000     0.086480000000     0.379060000000     0.0566488  
H189     H      0.884960000000     0.006580000000     0.431970000000     0.113739   
H190     H      0.835120000000     0.017930000000     0.405020000000     0.093923   
H191     H      0.553280000000     0.353180000000     0.448650000000     0.0431862  
H192     H      0.593860000000     0.310910000000     0.393180000000     0.0443263  
H193     H      0.698930000000     0.398590000000     0.404330000000     0.0549107  
H194     H      0.659930000000     0.451940000000     0.508280000000     0.11558    
H195     H      0.699290000000     0.449540000000     0.463850000000     0.0882558  
H196     H      0.810260000000     0.403020000000     0.213410000000     0.0404434  
H197     H      0.848610000000     0.442630000000     0.154040000000     0.0429678  
H198     H      0.956980000000     0.359670000000     0.170500000000     0.0564498  
H199     H      0.917340000000     0.308920000000     0.276860000000     0.114418   
H200     H      0.958620000000     0.311880000000     0.234120000000     0.0928811  
H201     H      0.647680000000     0.053310000000     0.655220000000     0.0403992  
H202     H      0.690450000000     0.094410000000     0.709320000000     0.0416024  
H203     H      0.586540000000     0.182050000000     0.730440000000     0.0563229  
H204     H      0.518570000000     0.163890000000     0.702020000000     0.0929384  
H205     H      0.507820000000     0.114800000000     0.673050000000     0.1156     
H206     H      0.558060000000     0.151280000000     0.957700000000     0.044127   
H207     H      0.598790000000     0.193240000000     0.902310000000     0.045354   
H208     H      0.706830000000     0.110350000000     0.920890000000     0.056086   
H209     H      0.663940000000     0.055950000000     0.023200000000     0.112658   
H210     H      0.706180000000     0.060200000000     0.981990000000     0.090947   
H211     H      0.600990000000     0.305930000000     0.706270000000     0.0431037  
H212     H      0.557930000000     0.347790000000     0.653200000000     0.0441137  
H213     H      0.663330000000     0.432870000000     0.628550000000     0.0520482  
H214     H      0.731410000000     0.413620000000     0.655560000000     0.0907645  
H215     H      0.741900000000     0.364430000000     0.684390000000     0.113088   
H216     H      0.898320000000     0.196220000000     0.699840000000     0.0431944  
H217     H      0.940610000000     0.155130000000     0.645060000000     0.0417359  
H218     H      0.835860000000     0.068620000000     0.623520000000     0.0554951  
H219     H      0.768030000000     0.087630000000     0.651740000000     0.0914     
H220     H      0.757950000000     0.136610000000     0.681270000000     0.114977   
H221     H      0.903540000000     0.304580000000     0.899050000000     0.0408767  
H222     H      0.947380000000     0.348700000000     0.949940000000     0.0435281  
H223     H      0.839060000000     0.428020000000     0.981450000000     0.0538683  
H224     H      0.761860000000     0.354780000000     0.930930000000     0.110639   
H225     H      0.770760000000     0.404430000000     0.959800000000     0.0876919  
H226     H      0.946610000000     0.146520000000     0.951180000000     0.0438829  
H227     H      0.903350000000     0.190640000000     0.900370000000     0.0447618  
H228     H      0.816010000000     0.086480000000     0.879060000000     0.056629   
H229     H      0.884960000000     0.006580000000     0.931980000000     0.113624   
H230     H      0.835120000000     0.017930000000     0.905020000000     0.0938931  
H231     H      0.553280000000     0.353180000000     0.948650000000     0.0430998  
H232     H      0.593860000000     0.310910000000     0.893180000000     0.0443086  
H233     H      0.698930000000     0.398590000000     0.904320000000     0.0549179  
H234     H      0.659930000000     0.451940000000     0.008280000000     0.115928   
H235     H      0.699290000000     0.449540000000     0.963850000000     0.0882008  
H236     H      0.810260000000     0.403020000000     0.713410000000     0.0404387  
H237     H      0.848610000000     0.442630000000     0.654040000000     0.0429416  
H238     H      0.956980000000     0.359670000000     0.670500000000     0.0564331  
H239     H      0.917340000000     0.308920000000     0.776860000000     0.114463   
H240     H      0.958620000000     0.311880000000     0.734120000000     0.0928638  
H241     H      0.647680000000     0.553310000000     0.155220000000     0.0403973  
H242     H      0.690450000000     0.594410000000     0.209320000000     0.0415992  
H243     H      0.586540000000     0.682050000000     0.230440000000     0.0563302  
H244     H      0.518570000000     0.663890000000     0.202030000000     0.092885   
H245     H      0.507820000000     0.614800000000     0.173050000000     0.115625   
H246     H      0.558060000000     0.651280000000     0.457700000000     0.0442009  
H247     H      0.598790000000     0.693240000000     0.402310000000     0.0453812  
H248     H      0.706830000000     0.610350000000     0.420890000000     0.0561187  
H249     H      0.663940000000     0.555950000000     0.523200000000     0.112307   
H250     H      0.706180000000     0.560200000000     0.482000000000     0.0910283  
H251     H      0.600990000000     0.805930000000     0.206270000000     0.043123   
H252     H      0.557930000000     0.847790000000     0.153200000000     0.0441154  
H253     H      0.663330000000     0.932870000000     0.128550000000     0.0520718  
H254     H      0.731410000000     0.913620000000     0.155560000000     0.0907929  
H255     H      0.741900000000     0.864430000000     0.184390000000     0.113114   
H256     H      0.898320000000     0.696220000000     0.199840000000     0.043207   
H257     H      0.940610000000     0.655130000000     0.145060000000     0.0417644  
H258     H      0.835860000000     0.568620000000     0.123520000000     0.0555212  
H259     H      0.768030000000     0.587630000000     0.151740000000     0.0914289  
H260     H      0.757950000000     0.636610000000     0.181270000000     0.115003   
H261     H      0.903540000000     0.804580000000     0.399050000000     0.0408989  
H262     H      0.947380000000     0.848700000000     0.449940000000     0.0436087  
H263     H      0.839060000000     0.928020000000     0.481450000000     0.0539672  
H264     H      0.761860000000     0.854780000000     0.430930000000     0.110682   
H265     H      0.770760000000     0.904430000000     0.459800000000     0.0877571  
H266     H      0.946610000000     0.646520000000     0.451180000000     0.0439331  
H267     H      0.903350000000     0.690640000000     0.400370000000     0.0447959  
H268     H      0.816010000000     0.586480000000     0.379060000000     0.056641   
H269     H      0.884960000000     0.506580000000     0.431970000000     0.11371    
H270     H      0.835120000000     0.517930000000     0.405020000000     0.0938985  
H271     H      0.553280000000     0.853180000000     0.448650000000     0.0431914  
H272     H      0.593860000000     0.810910000000     0.393180000000     0.044317   
H273     H      0.698930000000     0.898590000000     0.404330000000     0.0549036  
H274     H      0.659930000000     0.951940000000     0.508280000000     0.115566   
H275     H      0.699290000000     0.949540000000     0.463850000000     0.0882385  
H276     H      0.810260000000     0.903020000000     0.213410000000     0.0404362  
H277     H      0.848610000000     0.942630000000     0.154040000000     0.0429528  
H278     H      0.956980000000     0.859680000000     0.170500000000     0.0564303  
H279     H      0.917340000000     0.808920000000     0.276860000000     0.114419   
H280     H      0.958620000000     0.811880000000     0.234120000000     0.0928819  
H281     H      0.647680000000     0.553310000000     0.655220000000     0.0403831  
H282     H      0.690450000000     0.594410000000     0.709320000000     0.0415981  
H283     H      0.586540000000     0.682050000000     0.730440000000     0.0563246  
H284     H      0.518570000000     0.663890000000     0.702020000000     0.0928974  
H285     H      0.507820000000     0.614800000000     0.673050000000     0.115627   
H286     H      0.558060000000     0.651280000000     0.957700000000     0.0441265  
H287     H      0.598790000000     0.693240000000     0.902310000000     0.0453533  
H288     H      0.706830000000     0.610350000000     0.920890000000     0.0560815  
H289     H      0.663940000000     0.555950000000     0.023200000000     0.112643   
H290     H      0.706180000000     0.560200000000     0.981990000000     0.0909313  
H291     H      0.600990000000     0.805930000000     0.706270000000     0.0431115  
H292     H      0.557930000000     0.847790000000     0.653200000000     0.0440933  
H293     H      0.663330000000     0.932870000000     0.628550000000     0.052044   
H294     H      0.731410000000     0.913620000000     0.655560000000     0.0907543  
H295     H      0.741900000000     0.864430000000     0.684390000000     0.113087   
H296     H      0.898320000000     0.696220000000     0.699840000000     0.0431944  
H297     H      0.940610000000     0.655130000000     0.645060000000     0.041735   
H298     H      0.835860000000     0.568620000000     0.623520000000     0.0554821  
H299     H      0.768030000000     0.587630000000     0.651740000000     0.0913896  
H300     H      0.757950000000     0.636610000000     0.681270000000     0.114976   
H301     H      0.903540000000     0.804580000000     0.899050000000     0.0408764  
H302     H      0.947380000000     0.848700000000     0.949940000000     0.043527   
H303     H      0.839060000000     0.928020000000     0.981450000000     0.053855   
H304     H      0.761860000000     0.854780000000     0.930930000000     0.110639   
H305     H      0.770760000000     0.904430000000     0.959800000000     0.0876838  
H306     H      0.946610000000     0.646520000000     0.951180000000     0.0438831  
H307     H      0.903350000000     0.690640000000     0.900370000000     0.044762   
H308     H      0.816010000000     0.586480000000     0.879060000000     0.0566212  
H309     H      0.884960000000     0.506580000000     0.931980000000     0.113595   
H310     H      0.835120000000     0.517930000000     0.905020000000     0.0938687  
H311     H      0.553280000000     0.853180000000     0.948650000000     0.043105   
H312     H      0.593860000000     0.810910000000     0.893180000000     0.0442993  
H313     H      0.698930000000     0.898590000000     0.904320000000     0.0549108  
H314     H      0.659930000000     0.951940000000     0.008280000000     0.115914   
H315     H      0.699290000000     0.949540000000     0.963850000000     0.0881835  
H316     H      0.810260000000     0.903020000000     0.713410000000     0.0404316  
H317     H      0.848610000000     0.942630000000     0.654040000000     0.0429267  
H318     H      0.956980000000     0.859680000000     0.670500000000     0.0564136  
H319     H      0.917340000000     0.808920000000     0.776860000000     0.114464   
H320     H      0.958620000000     0.811880000000     0.734120000000     0.0928646  
N1       N      0.142330000000     0.142530000000     0.222160000000    -0.165228   
N2       N      0.091440000000     0.093570000000     0.160410000000    -0.192369   
N3       N      0.030860000000     0.136820000000     0.184550000000    -0.210623   
N4       N      0.155410000000     0.153910000000     0.406030000000    -0.164006   
N5       N      0.108380000000     0.105540000000     0.472390000000    -0.190694   
N6       N      0.174230000000     0.067580000000     0.490400000000    -0.210185   
N7       N      0.106970000000     0.394500000000     0.138380000000    -0.165318   
N8       N      0.158070000000     0.344740000000     0.199160000000    -0.192245   
N9       N      0.218980000000     0.386810000000     0.173410000000    -0.210384   
N10      N      0.392090000000     0.107400000000     0.132190000000    -0.165436   
N11      N      0.341820000000     0.156400000000     0.194530000000    -0.19195    
N12      N      0.280680000000     0.114330000000     0.169590000000    -0.210449   
N13      N      0.396880000000     0.392820000000     0.467960000000    -0.164758   
N14      N      0.345180000000     0.340380000000     0.410320000000    -0.191149   
N15      N      0.283750000000     0.378610000000     0.440730000000    -0.209853   
N16      N      0.355380000000     0.142380000000     0.387470000000    -0.164176   
N17      N      0.406680000000     0.090080000000     0.445640000000    -0.191737   
N18      N      0.362720000000     0.029900000000     0.421690000000    -0.21054    
N19      N      0.149430000000     0.351770000000     0.394280000000    -0.164857   
N20      N      0.102970000000     0.400160000000     0.461050000000    -0.191111   
N21      N      0.168270000000     0.440850000000     0.474600000000    -0.20999    
N22      N      0.404960000000     0.402810000000     0.156220000000    -0.165286   
N23      N      0.360750000000     0.357090000000     0.226650000000    -0.192273   
N24      N      0.426940000000     0.319570000000     0.243360000000    -0.210442   
N25      N      0.142330000000     0.142530000000     0.722170000000    -0.165256   
N26      N      0.091440000000     0.093570000000     0.660410000000    -0.192374   
N27      N      0.030860000000     0.136820000000     0.684550000000    -0.21065    
N28      N      0.155410000000     0.153910000000     0.906030000000    -0.164048   
N29      N      0.108380000000     0.105540000000     0.972390000000    -0.19056    
N30      N      0.174230000000     0.067580000000     0.990400000000    -0.210458   
N31      N      0.106970000000     0.394500000000     0.638380000000    -0.165335   
N32      N      0.158070000000     0.344740000000     0.699160000000    -0.192246   
N33      N      0.218980000000     0.386810000000     0.673410000000    -0.210384   
N34      N      0.392090000000     0.107400000000     0.632190000000    -0.165447   
N35      N      0.341820000000     0.156400000000     0.694530000000    -0.191952   
N36      N      0.280680000000     0.114330000000     0.669590000000    -0.210449   
N37      N      0.396880000000     0.392820000000     0.967950000000    -0.16459    
N38      N      0.345180000000     0.340380000000     0.910310000000    -0.191184   
N39      N      0.283750000000     0.378610000000     0.940730000000    -0.209853   
N40      N      0.355380000000     0.142380000000     0.887470000000    -0.164192   
N41      N      0.406680000000     0.090080000000     0.945640000000    -0.191671   
N42      N      0.362720000000     0.029900000000     0.921690000000    -0.210533   
N43      N      0.149430000000     0.351770000000     0.894280000000    -0.164863   
N44      N      0.102970000000     0.400160000000     0.961050000000    -0.190985   
N45      N      0.168270000000     0.440850000000     0.974600000000    -0.210275   
N46      N      0.404960000000     0.402810000000     0.656220000000    -0.165294   
N47      N      0.360750000000     0.357090000000     0.726650000000    -0.192269   
N48      N      0.426940000000     0.319570000000     0.743370000000    -0.21046    
N49      N      0.142330000000     0.642530000000     0.222160000000    -0.165199   
N50      N      0.091440000000     0.593570000000     0.160410000000    -0.192375   
N51      N      0.030860000000     0.636810000000     0.184550000000    -0.210625   
N52      N      0.155410000000     0.653910000000     0.406030000000    -0.164004   
N53      N      0.108380000000     0.605540000000     0.472390000000    -0.190696   
N54      N      0.174230000000     0.567580000000     0.490400000000    -0.210186   
N55      N      0.106970000000     0.894500000000     0.138380000000    -0.165334   
N56      N      0.158070000000     0.844740000000     0.199160000000    -0.192243   
N57      N      0.218980000000     0.886810000000     0.173410000000    -0.210385   
N58      N      0.392090000000     0.607400000000     0.132190000000    -0.16544    
N59      N      0.341820000000     0.656400000000     0.194530000000    -0.191949   
N60      N      0.280680000000     0.614330000000     0.169590000000    -0.210449   
N61      N      0.396880000000     0.892820000000     0.467960000000    -0.16476    
N62      N      0.345180000000     0.840380000000     0.410320000000    -0.19115    
N63      N      0.283750000000     0.878610000000     0.440730000000    -0.209853   
N64      N      0.355380000000     0.642380000000     0.387470000000    -0.164177   
N65      N      0.406680000000     0.590080000000     0.445640000000    -0.191739   
N66      N      0.362720000000     0.529900000000     0.421690000000    -0.210538   
N67      N      0.149430000000     0.851770000000     0.394280000000    -0.164871   
N68      N      0.102970000000     0.900160000000     0.461050000000    -0.191108   
N69      N      0.168270000000     0.940850000000     0.474600000000    -0.209991   
N70      N      0.404960000000     0.902810000000     0.156220000000    -0.165303   
N71      N      0.360750000000     0.857090000000     0.226650000000    -0.192269   
N72      N      0.426940000000     0.819570000000     0.243360000000    -0.210458   
N73      N      0.142330000000     0.642530000000     0.722170000000    -0.165227   
N74      N      0.091440000000     0.593570000000     0.660410000000    -0.192381   
N75      N      0.030860000000     0.636810000000     0.684550000000    -0.210652   
N76      N      0.155410000000     0.653910000000     0.906030000000    -0.164047   
N77      N      0.108380000000     0.605540000000     0.972390000000    -0.190562   
N78      N      0.174230000000     0.567580000000     0.990400000000    -0.210459   
N79      N      0.106970000000     0.894500000000     0.638380000000    -0.165351   
N80      N      0.158070000000     0.844740000000     0.699160000000    -0.192245   
N81      N      0.218980000000     0.886810000000     0.673410000000    -0.210385   
N82      N      0.392090000000     0.607400000000     0.632190000000    -0.165451   
N83      N      0.341820000000     0.656400000000     0.694530000000    -0.191951   
N84      N      0.280680000000     0.614330000000     0.669590000000    -0.210449   
N85      N      0.396880000000     0.892820000000     0.967950000000    -0.164592   
N86      N      0.345180000000     0.840380000000     0.910310000000    -0.191184   
N87      N      0.283750000000     0.878610000000     0.940730000000    -0.209853   
N88      N      0.355380000000     0.642380000000     0.887470000000    -0.164193   
N89      N      0.406680000000     0.590080000000     0.945640000000    -0.191672   
N90      N      0.362720000000     0.529900000000     0.921690000000    -0.210531   
N91      N      0.149430000000     0.851770000000     0.894280000000    -0.164877   
N92      N      0.102970000000     0.900160000000     0.961050000000    -0.190982   
N93      N      0.168270000000     0.940850000000     0.974600000000    -0.210276   
N94      N      0.404960000000     0.902810000000     0.656220000000    -0.16531    
N95      N      0.360750000000     0.857090000000     0.726650000000    -0.192266   
N96      N      0.426940000000     0.819570000000     0.743370000000    -0.210475   
N97      N      0.642330000000     0.142530000000     0.222160000000    -0.165223   
N98      N      0.591430000000     0.093570000000     0.160410000000    -0.19237    
N99      N      0.530860000000     0.136820000000     0.184550000000    -0.210672   
N100     N      0.655410000000     0.153910000000     0.406030000000    -0.164006   
N101     N      0.608380000000     0.105540000000     0.472390000000    -0.190692   
N102     N      0.674230000000     0.067580000000     0.490400000000    -0.210185   
N103     N      0.606970000000     0.394500000000     0.138380000000    -0.165297   
N104     N      0.658070000000     0.344740000000     0.199160000000    -0.192274   
N105     N      0.718980000000     0.386810000000     0.173410000000    -0.210393   
N106     N      0.892090000000     0.107400000000     0.132190000000    -0.165409   
N107     N      0.841820000000     0.156400000000     0.194530000000    -0.191951   
N108     N      0.780680000000     0.114330000000     0.169590000000    -0.210449   
N109     N      0.896880000000     0.392820000000     0.467960000000    -0.164776   
N110     N      0.845180000000     0.340380000000     0.410320000000    -0.191141   
N111     N      0.783750000000     0.378610000000     0.440730000000    -0.209866   
N112     N      0.855380000000     0.142380000000     0.387470000000    -0.16419    
N113     N      0.906680000000     0.090080000000     0.445640000000    -0.191746   
N114     N      0.862720000000     0.029900000000     0.421690000000    -0.21054    
N115     N      0.649430000000     0.351770000000     0.394280000000    -0.164858   
N116     N      0.602970000000     0.400160000000     0.461050000000    -0.191087   
N117     N      0.668270000000     0.440850000000     0.474600000000    -0.209988   
N118     N      0.904960000000     0.402810000000     0.156220000000    -0.16528    
N119     N      0.860750000000     0.357090000000     0.226650000000    -0.192275   
N120     N      0.926940000000     0.319570000000     0.243360000000    -0.210443   
N121     N      0.642330000000     0.142530000000     0.722170000000    -0.165252   
N122     N      0.591430000000     0.093570000000     0.660410000000    -0.192375   
N123     N      0.530860000000     0.136820000000     0.684550000000    -0.210698   
N124     N      0.655410000000     0.153910000000     0.906030000000    -0.164048   
N125     N      0.608380000000     0.105540000000     0.972390000000    -0.190558   
N126     N      0.674230000000     0.067580000000     0.990400000000    -0.210458   
N127     N      0.606970000000     0.394500000000     0.638380000000    -0.165315   
N128     N      0.658070000000     0.344740000000     0.699160000000    -0.192276   
N129     N      0.718980000000     0.386810000000     0.673410000000    -0.210394   
N130     N      0.892090000000     0.107400000000     0.632190000000    -0.16542    
N131     N      0.841820000000     0.156400000000     0.694530000000    -0.191953   
N132     N      0.780680000000     0.114330000000     0.669590000000    -0.210449   
N133     N      0.896880000000     0.392820000000     0.967950000000    -0.164608   
N134     N      0.845180000000     0.340380000000     0.910310000000    -0.191175   
N135     N      0.783750000000     0.378610000000     0.940730000000    -0.209866   
N136     N      0.855380000000     0.142380000000     0.887470000000    -0.164206   
N137     N      0.906680000000     0.090080000000     0.945640000000    -0.191679   
N138     N      0.862720000000     0.029900000000     0.921690000000    -0.210533   
N139     N      0.649430000000     0.351770000000     0.894280000000    -0.164864   
N140     N      0.602970000000     0.400160000000     0.961050000000    -0.190961   
N141     N      0.668270000000     0.440850000000     0.974600000000    -0.210273   
N142     N      0.904960000000     0.402810000000     0.656220000000    -0.165288   
N143     N      0.860750000000     0.357090000000     0.726650000000    -0.192271   
N144     N      0.926940000000     0.319570000000     0.743370000000    -0.21046    
N145     N      0.642330000000     0.642530000000     0.222160000000    -0.165194   
N146     N      0.591430000000     0.593570000000     0.160410000000    -0.192376   
N147     N      0.530860000000     0.636810000000     0.184550000000    -0.210673   
N148     N      0.655410000000     0.653910000000     0.406030000000    -0.164004   
N149     N      0.608380000000     0.605540000000     0.472390000000    -0.190694   
N150     N      0.674230000000     0.567580000000     0.490400000000    -0.210186   
N151     N      0.606970000000     0.894500000000     0.138380000000    -0.165314   
N152     N      0.658070000000     0.844740000000     0.199160000000    -0.192272   
N153     N      0.718980000000     0.886810000000     0.173410000000    -0.210394   
N154     N      0.892090000000     0.607400000000     0.132190000000    -0.165412   
N155     N      0.841820000000     0.656400000000     0.194530000000    -0.19195    
N156     N      0.780680000000     0.614330000000     0.169590000000    -0.210449   
N157     N      0.896880000000     0.892820000000     0.467960000000    -0.164778   
N158     N      0.845180000000     0.840380000000     0.410320000000    -0.191142   
N159     N      0.783750000000     0.878610000000     0.440730000000    -0.209866   
N160     N      0.855380000000     0.642380000000     0.387470000000    -0.164191   
N161     N      0.906680000000     0.590080000000     0.445640000000    -0.191748   
N162     N      0.862720000000     0.529900000000     0.421690000000    -0.210538   
N163     N      0.649430000000     0.851770000000     0.394280000000    -0.164873   
N164     N      0.602970000000     0.900160000000     0.461050000000    -0.191083   
N165     N      0.668270000000     0.940850000000     0.474600000000    -0.209989   
N166     N      0.904960000000     0.902810000000     0.156220000000    -0.165297   
N167     N      0.860750000000     0.857090000000     0.226650000000    -0.192271   
N168     N      0.926940000000     0.819570000000     0.243360000000    -0.210458   
N169     N      0.642330000000     0.642530000000     0.722170000000    -0.165223   
N170     N      0.591430000000     0.593570000000     0.660410000000    -0.192381   
N171     N      0.530860000000     0.636810000000     0.684550000000    -0.2107     
N172     N      0.655410000000     0.653910000000     0.906030000000    -0.164047   
N173     N      0.608380000000     0.605540000000     0.972390000000    -0.19056    
N174     N      0.674230000000     0.567580000000     0.990400000000    -0.210459   
N175     N      0.606970000000     0.894500000000     0.638380000000    -0.165331   
N176     N      0.658070000000     0.844740000000     0.699160000000    -0.192274   
N177     N      0.718980000000     0.886810000000     0.673410000000    -0.210395   
N178     N      0.892090000000     0.607400000000     0.632190000000    -0.165423   
N179     N      0.841820000000     0.656400000000     0.694530000000    -0.191952   
N180     N      0.780680000000     0.614330000000     0.669590000000    -0.210449   
N181     N      0.896880000000     0.892820000000     0.967950000000    -0.16461    
N182     N      0.845180000000     0.840380000000     0.910310000000    -0.191176   
N183     N      0.783750000000     0.878610000000     0.940730000000    -0.209866   
N184     N      0.855380000000     0.642380000000     0.887470000000    -0.164207   
N185     N      0.906680000000     0.590080000000     0.945640000000    -0.191681   
N186     N      0.862720000000     0.529900000000     0.921690000000    -0.210531   
N187     N      0.649430000000     0.851770000000     0.894280000000    -0.164879   
N188     N      0.602970000000     0.900160000000     0.961050000000    -0.190957   
N189     N      0.668270000000     0.940850000000     0.974600000000    -0.210274   
N190     N      0.904960000000     0.902810000000     0.656220000000    -0.165304   
N191     N      0.860750000000     0.857090000000     0.726650000000    -0.192267   
N192     N      0.926940000000     0.819570000000     0.743370000000    -0.210476   
O1       O      0.409800000000     0.458890000000     0.103400000000    -0.362056   
O2       O      0.085640000000     0.036480000000     0.108890000000    -0.367902   
O3       O      0.043860000000     0.406260000000     0.098190000000    -0.355366   
O4       O      0.455420000000     0.094550000000     0.092790000000    -0.364112   
O5       O      0.095650000000     0.455640000000     0.094380000000    -0.361819   
O6       O      0.403750000000     0.044940000000     0.090650000000    -0.360412   
O7       O      0.037610000000     0.089160000000     0.104300000000    -0.361185   
O8       O      0.462290000000     0.410170000000     0.105640000000    -0.360826   
O9       O      0.411750000000     0.035550000000     0.500740000000    -0.374181   
O10      O      0.088610000000     0.462250000000     0.502930000000    -0.374077   
O11      O      0.460410000000     0.407110000000     0.506750000000    -0.369885   
O12      O      0.045030000000     0.094130000000     0.513050000000    -0.363761   
O13      O      0.093340000000     0.041600000000     0.510620000000    -0.372355   
O14      O      0.406380000000     0.453850000000     0.512710000000    -0.369211   
O15      O      0.464290000000     0.083840000000     0.496600000000    -0.375756   
O16      O      0.042610000000     0.407840000000     0.507820000000    -0.366091   
O17      O      0.499460000000     0.499490000000     0.072600000000    -0.593982   
O18      O      0.297890000000     0.345040000000     0.267680000000    -0.36297    
O19      O      0.205810000000     0.154670000000     0.261570000000    -0.363162   
O20      O      0.336710000000     0.212380000000     0.247820000000    -0.362716   
O21      O      0.163930000000     0.287230000000     0.250090000000    -0.366623   
O22      O      0.288230000000     0.159990000000     0.250810000000    -0.363229   
O23      O      0.213160000000     0.338880000000     0.253510000000    -0.366863   
O24      O      0.154200000000     0.204270000000     0.264870000000    -0.357802   
O25      O      0.346490000000     0.292790000000     0.264110000000    -0.363727   
O26      O      0.210080000000     0.340650000000     0.349650000000    -0.369892   
O27      O      0.293700000000     0.154100000000     0.344480000000    -0.364032   
O28      O      0.338470000000     0.283650000000     0.358000000000    -0.369417   
O29      O      0.161310000000     0.210650000000     0.354030000000    -0.365551   
O30      O      0.213840000000     0.161950000000     0.356860000000    -0.370025   
O31      O      0.288900000000     0.335180000000     0.357560000000    -0.368133   
O32      O      0.157970000000     0.291510000000     0.347760000000    -0.367616   
O33      O      0.343140000000     0.205880000000     0.347910000000    -0.367705   
O34      O      0.250690000000     0.248870000000     0.284040000000    -0.592566   
O35      O      0.409800000000     0.458890000000     0.603390000000    -0.362084   
O36      O      0.085640000000     0.036480000000     0.608890000000    -0.367909   
O37      O      0.043860000000     0.406260000000     0.598190000000    -0.35545    
O38      O      0.455420000000     0.094550000000     0.592790000000    -0.364162   
O39      O      0.095650000000     0.455640000000     0.594390000000    -0.361854   
O40      O      0.403750000000     0.044940000000     0.590650000000    -0.360452   
O41      O      0.037610000000     0.089160000000     0.604300000000    -0.361188   
O42      O      0.462290000000     0.410170000000     0.605640000000    -0.360889   
O43      O      0.411750000000     0.035550000000     0.000740000000    -0.373643   
O44      O      0.088610000000     0.462250000000     0.002930000000    -0.37344    
O45      O      0.460410000000     0.407110000000     0.006750000000    -0.369238   
O46      O      0.045030000000     0.094130000000     0.013050000000    -0.363063   
O47      O      0.093340000000     0.041600000000     0.010620000000    -0.371729   
O48      O      0.406380000000     0.453850000000     0.012710000000    -0.36854    
O49      O      0.464290000000     0.083840000000     0.996600000000    -0.375971   
O50      O      0.042610000000     0.407840000000     0.007820000000    -0.365463   
O51      O      0.499460000000     0.499490000000     0.572600000000    -0.594024   
O52      O      0.297890000000     0.345040000000     0.767680000000    -0.362968   
O53      O      0.205810000000     0.154670000000     0.761570000000    -0.363172   
O54      O      0.336710000000     0.212380000000     0.747820000000    -0.362721   
O55      O      0.163930000000     0.287230000000     0.750090000000    -0.366632   
O56      O      0.288230000000     0.159990000000     0.750810000000    -0.363221   
O57      O      0.213160000000     0.338880000000     0.753510000000    -0.366863   
O58      O      0.154200000000     0.204270000000     0.764870000000    -0.357811   
O59      O      0.346490000000     0.292790000000     0.764110000000    -0.363733   
O60      O      0.210080000000     0.340650000000     0.849650000000    -0.369908   
O61      O      0.293700000000     0.154100000000     0.844470000000    -0.364039   
O62      O      0.338470000000     0.283650000000     0.858000000000    -0.369443   
O63      O      0.161310000000     0.210650000000     0.854030000000    -0.365511   
O64      O      0.213840000000     0.161950000000     0.856860000000    -0.370001   
O65      O      0.288900000000     0.335180000000     0.857560000000    -0.368146   
O66      O      0.157970000000     0.291510000000     0.847770000000    -0.367626   
O67      O      0.343140000000     0.205880000000     0.847910000000    -0.367701   
O68      O      0.250690000000     0.248870000000     0.784040000000    -0.592573   
O69      O      0.409800000000     0.958890000000     0.103400000000    -0.362061   
O70      O      0.085640000000     0.536480000000     0.108890000000    -0.367961   
O71      O      0.043860000000     0.906260000000     0.098190000000    -0.355368   
O72      O      0.455420000000     0.594550000000     0.092790000000    -0.364114   
O73      O      0.095650000000     0.955640000000     0.094380000000    -0.361825   
O74      O      0.403750000000     0.544940000000     0.090650000000    -0.360466   
O75      O      0.037610000000     0.589160000000     0.104300000000    -0.361188   
O76      O      0.462290000000     0.910170000000     0.105640000000    -0.36083    
O77      O      0.411750000000     0.535550000000     0.500740000000    -0.374233   
O78      O      0.088610000000     0.962250000000     0.502930000000    -0.374084   
O79      O      0.460410000000     0.907110000000     0.506750000000    -0.369887   
O80      O      0.045030000000     0.594130000000     0.513050000000    -0.363761   
O81      O      0.093340000000     0.541600000000     0.510620000000    -0.372411   
O82      O      0.406380000000     0.953850000000     0.512710000000    -0.36922    
O83      O      0.464290000000     0.583840000000     0.496600000000    -0.37576    
O84      O      0.042610000000     0.907840000000     0.507820000000    -0.366091   
O85      O      0.499460000000     0.999490000000     0.072600000000    -0.594005   
O86      O      0.297890000000     0.845040000000     0.267680000000    -0.362976   
O87      O      0.205810000000     0.654670000000     0.261570000000    -0.363113   
O88      O      0.336710000000     0.712380000000     0.247820000000    -0.362717   
O89      O      0.163930000000     0.787230000000     0.250090000000    -0.366655   
O90      O      0.288230000000     0.659990000000     0.250810000000    -0.363229   
O91      O      0.213160000000     0.838880000000     0.253510000000    -0.366877   
O92      O      0.154200000000     0.704280000000     0.264870000000    -0.357691   
O93      O      0.346490000000     0.792790000000     0.264110000000    -0.363726   
O94      O      0.210080000000     0.840650000000     0.349650000000    -0.369912   
O95      O      0.293700000000     0.654100000000     0.344480000000    -0.364028   
O96      O      0.338470000000     0.783650000000     0.358000000000    -0.369417   
O97      O      0.161310000000     0.710650000000     0.354030000000    -0.365518   
O98      O      0.213840000000     0.661950000000     0.356860000000    -0.370014   
O99      O      0.288900000000     0.835180000000     0.357560000000    -0.368143   
O100     O      0.157970000000     0.791510000000     0.347760000000    -0.367662   
O101     O      0.343140000000     0.705880000000     0.347910000000    -0.367704   
O102     O      0.250690000000     0.748880000000     0.284040000000    -0.592565   
O103     O      0.409800000000     0.958890000000     0.603390000000    -0.36209    
O104     O      0.085640000000     0.536480000000     0.608890000000    -0.367967   
O105     O      0.043860000000     0.906260000000     0.598190000000    -0.355453   
O106     O      0.455420000000     0.594550000000     0.592790000000    -0.364163   
O107     O      0.095650000000     0.955640000000     0.594390000000    -0.36186    
O108     O      0.403750000000     0.544940000000     0.590650000000    -0.360506   
O109     O      0.037610000000     0.589160000000     0.604300000000    -0.361191   
O110     O      0.462290000000     0.910170000000     0.605640000000    -0.360893   
O111     O      0.411750000000     0.535550000000     0.000740000000    -0.373695   
O112     O      0.088610000000     0.962250000000     0.002930000000    -0.373447   
O113     O      0.460410000000     0.907110000000     0.006750000000    -0.36924    
O114     O      0.045030000000     0.594130000000     0.013050000000    -0.363063   
O115     O      0.093340000000     0.541600000000     0.010620000000    -0.371785   
O116     O      0.406380000000     0.953850000000     0.012710000000    -0.368549   
O117     O      0.464290000000     0.583840000000     0.996600000000    -0.375974   
O118     O      0.042610000000     0.907840000000     0.007820000000    -0.365463   
O119     O      0.499460000000     0.999490000000     0.572600000000    -0.594048   
O120     O      0.297890000000     0.845040000000     0.767680000000    -0.362975   
O121     O      0.205810000000     0.654670000000     0.761570000000    -0.363123   
O122     O      0.336710000000     0.712380000000     0.747820000000    -0.362722   
O123     O      0.163930000000     0.787230000000     0.750090000000    -0.366664   
O124     O      0.288230000000     0.659990000000     0.750810000000    -0.363221   
O125     O      0.213160000000     0.838880000000     0.753510000000    -0.366877   
O126     O      0.154200000000     0.704280000000     0.764870000000    -0.357701   
O127     O      0.346490000000     0.792790000000     0.764110000000    -0.363733   
O128     O      0.210080000000     0.840650000000     0.849650000000    -0.369928   
O129     O      0.293700000000     0.654100000000     0.844470000000    -0.364035   
O130     O      0.338470000000     0.783650000000     0.858000000000    -0.369443   
O131     O      0.161310000000     0.710650000000     0.854030000000    -0.365478   
O132     O      0.213840000000     0.661950000000     0.856860000000    -0.36999    
O133     O      0.288900000000     0.835180000000     0.857560000000    -0.368155   
O134     O      0.157970000000     0.791510000000     0.847770000000    -0.367672   
O135     O      0.343140000000     0.705880000000     0.847910000000    -0.3677     
O136     O      0.250690000000     0.748880000000     0.784040000000    -0.592571   
O137     O      0.909800000000     0.458890000000     0.103400000000    -0.362051   
O138     O      0.585640000000     0.036480000000     0.108890000000    -0.367876   
O139     O      0.543860000000     0.406260000000     0.098190000000    -0.355368   
O140     O      0.955430000000     0.094550000000     0.092790000000    -0.364039   
O141     O      0.595650000000     0.455640000000     0.094380000000    -0.361822   
O142     O      0.903750000000     0.044940000000     0.090650000000    -0.360374   
O143     O      0.537600000000     0.089160000000     0.104300000000    -0.36111    
O144     O      0.962290000000     0.410170000000     0.105640000000    -0.360788   
O145     O      0.911750000000     0.035550000000     0.500740000000    -0.374184   
O146     O      0.588610000000     0.462250000000     0.502930000000    -0.374041   
O147     O      0.960410000000     0.407110000000     0.506750000000    -0.369855   
O148     O      0.545030000000     0.094130000000     0.513050000000    -0.363733   
O149     O      0.593340000000     0.041600000000     0.510620000000    -0.372353   
O150     O      0.906380000000     0.453850000000     0.512710000000    -0.369208   
O151     O      0.964290000000     0.083840000000     0.496600000000    -0.375753   
O152     O      0.542600000000     0.407840000000     0.507820000000    -0.366024   
O153     O      0.999460000000     0.499490000000     0.072600000000    -0.593941   
O154     O      0.797890000000     0.345040000000     0.267680000000    -0.362972   
O155     O      0.705810000000     0.154670000000     0.261570000000    -0.363148   
O156     O      0.836710000000     0.212380000000     0.247820000000    -0.362714   
O157     O      0.663930000000     0.287230000000     0.250090000000    -0.366651   
O158     O      0.788230000000     0.159990000000     0.250810000000    -0.36323    
O159     O      0.713160000000     0.338880000000     0.253510000000    -0.366789   
O160     O      0.654190000000     0.204270000000     0.264870000000    -0.357726   
O161     O      0.846490000000     0.292790000000     0.264110000000    -0.363725   
O162     O      0.710080000000     0.340650000000     0.349650000000    -0.369893   
O163     O      0.793700000000     0.154100000000     0.344480000000    -0.364045   
O164     O      0.838470000000     0.283650000000     0.358000000000    -0.369405   
O165     O      0.661310000000     0.210650000000     0.354030000000    -0.365558   
O166     O      0.713840000000     0.161950000000     0.356860000000    -0.370026   
O167     O      0.788900000000     0.335180000000     0.357560000000    -0.368131   
O168     O      0.657970000000     0.291510000000     0.347760000000    -0.367619   
O169     O      0.843130000000     0.205880000000     0.347910000000    -0.367773   
O170     O      0.750680000000     0.248870000000     0.284040000000    -0.592566   
O171     O      0.909800000000     0.458890000000     0.603390000000    -0.36208    
O172     O      0.585640000000     0.036480000000     0.608890000000    -0.367882   
O173     O      0.543860000000     0.406260000000     0.598190000000    -0.355452   
O174     O      0.955430000000     0.094550000000     0.592790000000    -0.364089   
O175     O      0.595650000000     0.455640000000     0.594390000000    -0.361857   
O176     O      0.903750000000     0.044940000000     0.590650000000    -0.360414   
O177     O      0.537600000000     0.089160000000     0.604300000000    -0.361113   
O178     O      0.962290000000     0.410170000000     0.605640000000    -0.360851   
O179     O      0.911750000000     0.035550000000     0.000740000000    -0.373646   
O180     O      0.588610000000     0.462250000000     0.002930000000    -0.373404   
O181     O      0.960410000000     0.407110000000     0.006750000000    -0.369209   
O182     O      0.545030000000     0.094130000000     0.013050000000    -0.363036   
O183     O      0.593340000000     0.041600000000     0.010620000000    -0.371727   
O184     O      0.906380000000     0.453850000000     0.012710000000    -0.368537   
O185     O      0.964290000000     0.083840000000     0.996600000000    -0.375967   
O186     O      0.542600000000     0.407840000000     0.007820000000    -0.365396   
O187     O      0.999460000000     0.499490000000     0.572600000000    -0.593983   
O188     O      0.797890000000     0.345040000000     0.767680000000    -0.362971   
O189     O      0.705810000000     0.154670000000     0.761570000000    -0.363159   
O190     O      0.836710000000     0.212380000000     0.747820000000    -0.362719   
O191     O      0.663930000000     0.287230000000     0.750090000000    -0.36666    
O192     O      0.788230000000     0.159990000000     0.750810000000    -0.363223   
O193     O      0.713160000000     0.338880000000     0.753510000000    -0.366789   
O194     O      0.654190000000     0.204270000000     0.764870000000    -0.357735   
O195     O      0.846490000000     0.292790000000     0.764110000000    -0.363731   
O196     O      0.710080000000     0.340650000000     0.849650000000    -0.369909   
O197     O      0.793700000000     0.154100000000     0.844470000000    -0.364052   
O198     O      0.838470000000     0.283650000000     0.858000000000    -0.369431   
O199     O      0.661310000000     0.210650000000     0.854030000000    -0.365517   
O200     O      0.713840000000     0.161950000000     0.856860000000    -0.370002   
O201     O      0.788900000000     0.335180000000     0.857560000000    -0.368143   
O202     O      0.657970000000     0.291510000000     0.847770000000    -0.367629   
O203     O      0.843130000000     0.205880000000     0.847910000000    -0.367769   
O204     O      0.750680000000     0.248870000000     0.784040000000    -0.592573   
O205     O      0.909800000000     0.958890000000     0.103400000000    -0.362057   
O206     O      0.585640000000     0.536480000000     0.108890000000    -0.367934   
O207     O      0.543860000000     0.906260000000     0.098190000000    -0.35537    
O208     O      0.955430000000     0.594550000000     0.092790000000    -0.36404    
O209     O      0.595650000000     0.955640000000     0.094380000000    -0.361828   
O210     O      0.903750000000     0.544940000000     0.090650000000    -0.360428   
O211     O      0.537600000000     0.589160000000     0.104300000000    -0.361113   
O212     O      0.962290000000     0.910170000000     0.105640000000    -0.360792   
O213     O      0.911750000000     0.535550000000     0.500740000000    -0.374236   
O214     O      0.588610000000     0.962250000000     0.502930000000    -0.374048   
O215     O      0.960410000000     0.907110000000     0.506750000000    -0.369857   
O216     O      0.545030000000     0.594130000000     0.513050000000    -0.363734   
O217     O      0.593340000000     0.541600000000     0.510620000000    -0.372409   
O218     O      0.906380000000     0.953850000000     0.512710000000    -0.369217   
O219     O      0.964290000000     0.583840000000     0.496600000000    -0.375756   
O220     O      0.542600000000     0.907840000000     0.507820000000    -0.366025   
O221     O      0.999460000000     0.999490000000     0.072600000000    -0.593965   
O222     O      0.797890000000     0.845040000000     0.267680000000    -0.362979   
O223     O      0.705810000000     0.654670000000     0.261570000000    -0.3631     
O224     O      0.836710000000     0.712380000000     0.247820000000    -0.362715   
O225     O      0.663930000000     0.787230000000     0.250090000000    -0.366683   
O226     O      0.788230000000     0.659990000000     0.250810000000    -0.36323    
O227     O      0.713160000000     0.838880000000     0.253510000000    -0.366803   
O228     O      0.654190000000     0.704280000000     0.264870000000    -0.357615   
O229     O      0.846490000000     0.792790000000     0.264110000000    -0.363725   
O230     O      0.710080000000     0.840650000000     0.349650000000    -0.369913   
O231     O      0.793700000000     0.654100000000     0.344480000000    -0.364041   
O232     O      0.838470000000     0.783650000000     0.358000000000    -0.369405   
O233     O      0.661310000000     0.710650000000     0.354030000000    -0.365525   
O234     O      0.713840000000     0.661950000000     0.356860000000    -0.370015   
O235     O      0.788900000000     0.835180000000     0.357560000000    -0.36814    
O236     O      0.657970000000     0.791510000000     0.347760000000    -0.367665   
O237     O      0.843130000000     0.705880000000     0.347910000000    -0.367772   
O238     O      0.750680000000     0.748880000000     0.284040000000    -0.592565   
O239     O      0.909800000000     0.958890000000     0.603390000000    -0.362085   
O240     O      0.585640000000     0.536480000000     0.608890000000    -0.367941   
O241     O      0.543860000000     0.906260000000     0.598190000000    -0.355455   
O242     O      0.955430000000     0.594550000000     0.592790000000    -0.36409    
O243     O      0.595650000000     0.955640000000     0.594390000000    -0.361863   
O244     O      0.903750000000     0.544940000000     0.590650000000    -0.360468   
O245     O      0.537600000000     0.589160000000     0.604300000000    -0.361116   
O246     O      0.962290000000     0.910170000000     0.605640000000    -0.360855   
O247     O      0.911750000000     0.535550000000     0.000740000000    -0.373698   
O248     O      0.588610000000     0.962250000000     0.002930000000    -0.373411   
O249     O      0.960410000000     0.907110000000     0.006750000000    -0.36921    
O250     O      0.545030000000     0.594130000000     0.013050000000    -0.363036   
O251     O      0.593340000000     0.541600000000     0.010620000000    -0.371783   
O252     O      0.906380000000     0.953850000000     0.012710000000    -0.368546   
O253     O      0.964290000000     0.583840000000     0.996600000000    -0.37597    
O254     O      0.542600000000     0.907840000000     0.007820000000    -0.365397   
O255     O      0.999460000000     0.999490000000     0.572600000000    -0.594007   
O256     O      0.797890000000     0.845040000000     0.767680000000    -0.362977   
O257     O      0.705810000000     0.654670000000     0.761570000000    -0.36311    
O258     O      0.836710000000     0.712380000000     0.747820000000    -0.36272    
O259     O      0.663930000000     0.787230000000     0.750090000000    -0.366692   
O260     O      0.788230000000     0.659990000000     0.750810000000    -0.363222   
O261     O      0.713160000000     0.838880000000     0.753510000000    -0.366803   
O262     O      0.654190000000     0.704280000000     0.764870000000    -0.357625   
O263     O      0.846490000000     0.792790000000     0.764110000000    -0.363731   
O264     O      0.710080000000     0.840650000000     0.849650000000    -0.369928   
O265     O      0.793700000000     0.654100000000     0.844470000000    -0.364047   
O266     O      0.838470000000     0.783650000000     0.858000000000    -0.369431   
O267     O      0.661310000000     0.710650000000     0.854030000000    -0.365485   
O268     O      0.713840000000     0.661950000000     0.856860000000    -0.36999    
O269     O      0.788900000000     0.835180000000     0.857560000000    -0.368152   
O270     O      0.657970000000     0.791510000000     0.847770000000    -0.367675   
O271     O      0.843130000000     0.705880000000     0.847910000000    -0.367768   
O272     O      0.750680000000     0.748880000000     0.784040000000    -0.592572   


