data_structure

_audit_creation_method RASPA-1.0
_audit_creation_date 2023-6-4
_audit_author_name 'Poobodin Mano'

_cell_length_a    31.3582
_cell_length_b    32.0521
_cell_length_c    32.5501
_cell_angle_alpha 87.1412
_cell_angle_beta  93.8174
_cell_angle_gamma 120.436
_cell_volume      28140

_symmetry_cell_setting          triclinic
_symmetry_space_group_name_Hall 'P 1'
_symmetry_space_group_name_H-M  'P 1'
_symmetry_Int_Tables_number     1

_symmetry_equiv_pos_as_xyz 'x,y,z'

loop_
_atom_site_label
_atom_site_type_symbol
_atom_site_fract_x
_atom_site_fract_y
_atom_site_fract_z
_atom_site_charge
C1       C      0.978930000000     0.083520000000     0.017600000000     0.488349   
C2       C      0.897250000000     0.918900000000     0.024280000000     0.453272   
C3       C      0.000730000000     0.977380000000     0.947380000000     0.471544   
C4       C      0.944760000000     0.049070000000     0.130000000000     0.421787   
C5       C      0.029010000000     0.007620000000     0.154450000000     0.448485   
C6       C      0.103720000000     0.997500000000     0.017650000000     0.489376   
C7       C      0.098300000000     0.121180000000     0.057220000000     0.478689   
C8       C      0.966850000000     0.887460000000     0.091020000000     0.429839   
C9       C      0.084310000000     0.052860000000     0.450690000000     0.465685   
C10      C      0.043090000000     0.147880000000     0.618690000000     0.409515   
C11      C      0.986320000000     0.093970000000     0.517970000000     0.476131   
C12      C      0.172290000000     0.156220000000     0.521420000000     0.45664    
C13      C      0.183110000000     0.083880000000     0.598880000000     0.454023   
C14      C      0.948050000000     0.980860000000     0.569700000000     0.478679   
C15      C      0.053980000000     0.954860000000     0.522690000000     0.482891   
C16      C      0.068090000000     0.054530000000     0.656590000000     0.466449   
C17      C      0.914530000000     0.408560000000     0.982800000000     0.507863   
C18      C      0.006120000000     0.626430000000     0.023750000000     0.369509   
C19      C      0.915140000000     0.505610000000     0.053240000000     0.481573   
C20      C      0.034430000000     0.544680000000     0.922430000000     0.459442   
C21      C      0.122060000000     0.535370000000     0.001980000000     0.475812   
C22      C      0.014230000000     0.511170000000     0.124730000000     0.445773   
C23      C      0.012280000000     0.400190000000     0.035260000000     0.517324   
C24      C      0.121320000000     0.642500000000     0.041500000000     0.375896   
C25      C      0.984140000000     0.425950000000     0.484180000000     0.485484   
C26      C      0.090800000000     0.670770000000     0.523510000000     0.385071   
C27      C      0.976860000000     0.565670000000     0.525650000000     0.502066   
C28      C      0.056000000000     0.524280000000     0.428220000000     0.438278   
C29      C      0.172450000000     0.563470000000     0.487900000000     0.449165   
C30      C      0.034400000000     0.549790000000     0.619680000000     0.481582   
C31      C      0.048320000000     0.444800000000     0.583380000000     0.469548   
C32      C      0.181540000000     0.641100000000     0.542460000000     0.466447   
C33      C      0.431480000000     0.029840000000     0.046930000000     0.476879   
C34      C      0.552250000000     0.921160000000     0.041310000000     0.483611   
C35      C      0.523600000000     0.004010000000     0.945070000000     0.516694   
C36      C      0.441460000000     0.932600000000     0.093890000000     0.475946   
C37      C      0.532100000000     0.982920000000     0.166710000000     0.405577   
C38      C      0.622210000000     0.109870000000     0.990800000000     0.497754   
C39      C      0.553000000000     0.128940000000     0.073000000000     0.453949   
C40      C      0.644590000000     0.034220000000     0.093950000000     0.498894   
C41      C      0.473040000000     0.079690000000     0.505430000000     0.44839    
C42      C      0.601960000000     0.973590000000     0.529240000000     0.476671   
C43      C      0.546470000000     0.044240000000     0.447850000000     0.481329   
C44      C      0.471870000000     0.949270000000     0.585710000000     0.487521   
C45      C      0.548960000000     0.051340000000     0.648680000000     0.489237   
C46      C      0.673590000000     0.136460000000     0.471620000000     0.412435   
C47      C      0.566110000000     0.154660000000     0.576280000000     0.447278   
C48      C      0.682800000000     0.088460000000     0.573980000000     0.47441    
C49      C      0.409950000000     0.411820000000     0.032330000000     0.461252   
C50      C      0.511420000000     0.604720000000     0.000330000000     0.456941   
C51      C      0.425930000000     0.528760000000     0.087840000000     0.367109   
C52      C      0.533170000000     0.530600000000     0.932790000000     0.483093   
C53      C      0.606300000000     0.497720000000     0.006200000000     0.49483    
C54      C      0.503330000000     0.496790000000     0.149590000000     0.370371   
C55      C      0.527250000000     0.419650000000     0.066280000000     0.457882   
C56      C      0.598530000000     0.622570000000     0.076040000000     0.441706   
C57      C      0.488930000000     0.442800000000     0.490930000000     0.460305   
C58      C      0.601520000000     0.674670000000     0.489300000000     0.3805     
C59      C      0.476720000000     0.576470000000     0.545550000000     0.4682     
C60      C      0.582040000000     0.548570000000     0.445440000000     0.458804   
C61      C      0.684590000000     0.588610000000     0.522140000000     0.462003   
C62      C      0.543170000000     0.548560000000     0.630460000000     0.460016   
C63      C      0.545010000000     0.446080000000     0.589150000000     0.453544   
C64      C      0.644990000000     0.675420000000     0.583080000000     0.374886   
C65      C      0.585470000000     0.563600000000     0.697620000000     0.104383   
C66      C      0.497710000000     0.525290000000     0.690560000000     0.0761192  
C67      C      0.583190000000     0.562900000000     0.740510000000    -0.0981244  
C68      C      0.574070000000     0.578330000000     0.829240000000    -0.0871647  
C69      C      0.494680000000     0.525330000000     0.733070000000    -0.0896662  
C70      C      0.535120000000     0.543120000000     0.804540000000     0.0335695  
C71      C      0.537690000000     0.544350000000     0.758810000000     0.0406239  
C72      C      0.572530000000     0.574260000000     0.872140000000     0.0746167  
C73      C      0.493280000000     0.503600000000     0.866960000000     0.0736245  
C74      C      0.494180000000     0.505770000000     0.824160000000    -0.087308   
C75      C      0.559930000000     0.542850000000     0.206120000000     0.102175   
C76      C      0.490420000000     0.464500000000     0.217600000000     0.0710296  
C77      C      0.569520000000     0.548760000000     0.248620000000    -0.0982526  
C78      C      0.558560000000     0.489760000000     0.346190000000    -0.087822   
C79      C      0.500300000000     0.469170000000     0.260090000000    -0.0879994  
C80      C      0.548360000000     0.520140000000     0.320470000000     0.0347131  
C81      C      0.539220000000     0.512270000000     0.275800000000     0.0399989  
C82      C      0.570230000000     0.500050000000     0.387990000000     0.0746502  
C83      C      0.559580000000     0.568250000000     0.379280000000     0.0769033  
C84      C      0.548860000000     0.559640000000     0.337290000000    -0.0873215  
C85      C      0.637350000000     0.937600000000     0.487850000000     0.0989869  
C86      C      0.571080000000     0.889420000000     0.531460000000     0.0723683  
C87      C      0.636550000000     0.895450000000     0.475730000000    -0.0978104  
C88      C      0.645500000000     0.803790000000     0.475780000000    -0.0817373  
C89      C      0.570030000000     0.847650000000     0.520210000000    -0.0902913  
C90      C      0.601740000000     0.804400000000     0.481240000000     0.0306704  
C91      C      0.602580000000     0.849800000000     0.491800000000     0.0397718  
C92      C      0.644230000000     0.759470000000     0.474070000000     0.0684171  
C93      C      0.557310000000     0.716620000000     0.480060000000     0.0728633  
C94      C      0.557020000000     0.759950000000     0.480690000000    -0.0827938  
C95      C      0.606920000000     0.241510000000     0.587350000000     0.0998562  
C96      C      0.523960000000     0.189240000000     0.605730000000     0.0712508  
C97      C      0.601850000000     0.281840000000     0.594030000000    -0.0970552  
C98      C      0.590480000000     0.364210000000     0.621190000000    -0.0853514  
C99      C      0.518260000000     0.228860000000     0.612930000000    -0.0890089  
C100     C      0.550310000000     0.319190000000     0.609340000000     0.0301578  
C101     C      0.556880000000     0.276100000000     0.605900000000     0.0381276  
C102     C      0.586630000000     0.405830000000     0.617350000000     0.0673945  
C103     C      0.502230000000     0.359530000000     0.595400000000     0.0689626  
C104     C      0.505060000000     0.317010000000     0.598030000000    -0.0847807  
C105     C      0.482340000000     0.010160000000     0.881390000000     0.106236   
C106     C      0.548410000000     0.993790000000     0.881970000000     0.0802644  
C107     C      0.486120000000     0.019500000000     0.838970000000    -0.10237    
C108     C      0.490420000000     0.022790000000     0.746780000000    -0.0890504  
C109     C      0.551750000000     0.001370000000     0.839770000000    -0.0937784  
C110     C      0.530250000000     0.031370000000     0.774110000000     0.033589   
C111     C      0.522400000000     0.017100000000     0.818110000000     0.0426319  
C112     C      0.498230000000     0.033430000000     0.705120000000     0.0770164  
C113     C      0.584080000000     0.062040000000     0.716850000000     0.0740453  
C114     C      0.577860000000     0.053210000000     0.758920000000    -0.087974   
C115     C      0.535270000000     0.953100000000     0.235550000000     0.106905   
C116     C      0.488950000000     0.992030000000     0.217460000000     0.080387   
C117     C      0.525860000000     0.952950000000     0.277090000000    -0.098763   
C118     C      0.505110000000     0.958300000000     0.364830000000    -0.0866087  
C119     C      0.476740000000     0.989770000000     0.257870000000    -0.0925102  
C120     C      0.498400000000     0.985180000000     0.332430000000     0.0348081  
C121     C      0.498140000000     0.973460000000     0.288780000000     0.0425156  
C122     C      0.518200000000     0.977200000000     0.404280000000     0.0796304  
C123     C      0.510570000000     0.044740000000     0.381820000000     0.0775909  
C124     C      0.498830000000     0.027740000000     0.341880000000    -0.0861052  
C125     C      0.527840000000     0.838310000000     0.063110000000     0.0995103  
C126     C      0.544350000000     0.864470000000     0.993320000000     0.0753614  
C127     C      0.516970000000     0.791830000000     0.052320000000    -0.0988695  
C128     C      0.470750000000     0.691210000000     0.012570000000    -0.084408   
C129     C      0.534580000000     0.818940000000     0.982200000000    -0.090904   
C130     C      0.512880000000     0.734170000000     0.000830000000     0.0316368  
C131     C      0.520650000000     0.782000000000     0.011730000000     0.0394295  
C132     C      0.467820000000     0.646760000000     0.007250000000     0.0755594  
C133     C      0.545610000000     0.686290000000     0.976700000000     0.07366    
C134     C      0.549270000000     0.731190000000     0.980660000000    -0.0862323  
C135     C      0.579830000000     0.201890000000     0.113760000000     0.0983499  
C136     C      0.547960000000     0.195470000000     0.044830000000     0.0747764  
C137     C      0.582230000000     0.247230000000     0.116560000000    -0.0954624  
C138     C      0.557210000000     0.331700000000     0.117820000000    -0.0825615  
C139     C      0.548750000000     0.238860000000     0.047260000000    -0.0905726  
C140     C      0.567540000000     0.313870000000     0.083260000000     0.0318322  
C141     C      0.566520000000     0.266290000000     0.082990000000     0.0389975  
C142     C      0.548310000000     0.370980000000     0.113030000000     0.0710816  
C143     C      0.560290000000     0.374820000000     0.041720000000     0.0764179  
C144     C      0.573340000000     0.339470000000     0.045960000000    -0.0870422  
C145     C      0.912290000000     0.384090000000     0.438750000000     0.102711   
C146     C      0.945200000000     0.341090000000     0.477510000000     0.0719542  
C147     C      0.869660000000     0.340440000000     0.428350000000    -0.100607   
C148     C      0.772370000000     0.259850000000     0.453020000000    -0.0867065  
C149     C      0.902340000000     0.296990000000     0.468440000000    -0.090079   
C150     C      0.812180000000     0.253480000000     0.445860000000     0.0319404  
C151     C      0.862740000000     0.296720000000     0.445680000000     0.0396218  
C152     C      0.726010000000     0.220060000000     0.459460000000     0.073798   
C153     C      0.755680000000     0.166610000000     0.449350000000     0.0698134  
C154     C      0.803310000000     0.206120000000     0.443170000000    -0.0862836  
C155     C      0.263360000000     0.705520000000     0.527050000000     0.106135   
C156     C      0.241780000000     0.681890000000     0.596570000000     0.0736095  
C157     C      0.307300000000     0.745900000000     0.540450000000    -0.101676   
C158     C      0.347760000000     0.844320000000     0.574750000000    -0.0893542  
C159     C      0.285020000000     0.723640000000     0.610620000000    -0.0890774  
C160     C      0.354580000000     0.807370000000     0.592410000000     0.0339153  
C161     C      0.316850000000     0.757060000000     0.581980000000     0.040289   
C162     C      0.387100000000     0.891580000000     0.573950000000     0.0762684  
C163     C      0.438990000000     0.868000000000     0.611860000000     0.0739418  
C164     C      0.400260000000     0.819500000000     0.612300000000    -0.0881403  
C165     C      0.757210000000     0.594720000000     0.557220000000     0.102995   
C166     C      0.758310000000     0.618900000000     0.486760000000     0.073374   
C167     C      0.803820000000     0.599610000000     0.554700000000    -0.101399   
C168     C      0.865330000000     0.568470000000     0.490040000000    -0.0882694  
C169     C      0.804290000000     0.622650000000     0.483150000000    -0.0908452  
C170     C      0.870100000000     0.606350000000     0.513100000000     0.033579   
C171     C      0.826580000000     0.611570000000     0.517140000000     0.0397972  
C172     C      0.902170000000     0.556150000000     0.493730000000     0.0754335  
C173     C      0.950000000000     0.620620000000     0.539690000000     0.0767484  
C174     C      0.913340000000     0.633260000000     0.537480000000    -0.0885331  
C175     C      0.251250000000     0.596700000000     0.455890000000     0.101184   
C176     C      0.245260000000     0.585970000000     0.528540000000     0.0748116  
C177     C      0.301900000000     0.611460000000     0.460580000000    -0.0999736  
C178     C      0.379380000000     0.582930000000     0.483080000000    -0.0875992  
C179     C      0.295210000000     0.601520000000     0.533980000000    -0.0901456  
C180     C      0.371940000000     0.614380000000     0.505640000000     0.0322458  
C181     C      0.323820000000     0.612630000000     0.499890000000     0.0396075  
C182     C      0.415830000000     0.572230000000     0.496340000000     0.0741482  
C183     C      0.442140000000     0.627410000000     0.551070000000     0.0720492  
C184     C      0.405100000000     0.638370000000     0.539040000000    -0.0873572  
C185     C      0.073820000000     0.588650000000     0.859980000000     0.100852   
C186     C      0.989880000000     0.525340000000     0.858440000000     0.0733989  
C187     C      0.072090000000     0.590010000000     0.816580000000    -0.0961981  
C188     C      0.993950000000     0.514260000000     0.725620000000    -0.084525   
C189     C      0.986800000000     0.527220000000     0.815550000000    -0.0882858  
C190     C      0.027320000000     0.556590000000     0.747340000000     0.0327743  
C191     C      0.028620000000     0.558330000000     0.793590000000     0.0388027  
C192     C      0.995110000000     0.512940000000     0.682660000000     0.0727867  
C193     C      0.062010000000     0.593660000000     0.681810000000     0.0754193  
C194     C      0.060590000000     0.596880000000     0.724220000000    -0.0857435  
C195     C      0.037310000000     0.555560000000     0.188760000000     0.0996673  
C196     C      0.015570000000     0.472980000000     0.188760000000     0.0717658  
C197     C      0.041220000000     0.554820000000     0.232020000000    -0.0969297  
C198     C      0.051620000000     0.484840000000     0.323170000000    -0.0846354  
C199     C      0.019060000000     0.471470000000     0.231780000000    -0.0887556  
C200     C      0.033540000000     0.511410000000     0.300220000000     0.0322337  
C201     C      0.031150000000     0.512410000000     0.254130000000     0.03936    
C202     C      0.056580000000     0.487440000000     0.366270000000     0.0718986  
C203     C      0.024460000000     0.540340000000     0.364670000000     0.0712403  
C204     C      0.018520000000     0.538140000000     0.321820000000    -0.0855332  
C205     C      0.827610000000     0.370420000000     0.965120000000     0.107906   
C206     C      0.874710000000     0.336600000000     0.944860000000     0.0764117  
C207     C      0.783700000000     0.327250000000     0.956560000000    -0.1021     
C208     C      0.693580000000     0.228340000000     0.939710000000    -0.0881566  
C209     C      0.831520000000     0.293130000000     0.935590000000    -0.0931457  
C210     C      0.742040000000     0.238150000000     0.949510000000     0.0342353  
C211     C      0.785590000000     0.287080000000     0.944520000000     0.0412605  
C212     C      0.653320000000     0.184560000000     0.952780000000     0.0750369  
C213     C      0.708240000000     0.160240000000     0.983580000000     0.0782893  
C214     C      0.748840000000     0.202880000000     0.970740000000    -0.0897928  
C215     C      0.206380000000     0.698010000000     0.028940000000     0.103868   
C216     C      0.174440000000     0.695840000000     0.093800000000     0.0704659  
C217     C      0.250790000000     0.739190000000     0.040250000000    -0.0989692  
C218     C      0.349300000000     0.805150000000     0.080130000000    -0.087488   
C219     C      0.218970000000     0.737400000000     0.105920000000    -0.0874544  
C220     C      0.305560000000     0.803620000000     0.089130000000     0.0341359  
C221     C      0.257450000000     0.759730000000     0.078640000000     0.0397518  
C222     C      0.394040000000     0.848510000000     0.082180000000     0.0782429  
C223     C      0.354520000000     0.888980000000     0.105160000000     0.0739785  
C224     C      0.308490000000     0.845830000000     0.102830000000    -0.0849989  
C225     C      0.664930000000     0.491170000000     0.052430000000     0.103211   
C226     C      0.652770000000     0.464590000000     0.983230000000     0.0718768  
C227     C      0.705370000000     0.484700000000     0.058490000000    -0.101054   
C228     C      0.781990000000     0.451900000000     0.062380000000    -0.0908919  
C229     C      0.694750000000     0.459770000000     0.988190000000    -0.0913638  
C230     C      0.771250000000     0.476880000000     0.030840000000     0.0332663  
C231     C      0.721920000000     0.471340000000     0.025910000000     0.0389878  
C232     C      0.830770000000     0.462950000000     0.070480000000     0.0782331  
C233     C      0.858050000000     0.524120000000     0.018040000000     0.075133   
C234     C      0.809710000000     0.513660000000     0.008890000000    -0.0894121  
C235     C      0.186550000000     0.548650000000     0.053830000000     0.102219   
C236     C      0.183730000000     0.516090000000     0.988920000000     0.0789076  
C237     C      0.229930000000     0.548090000000     0.065540000000    -0.0998382  
C238     C      0.335340000000     0.568840000000     0.073880000000    -0.0840145  
C239     C      0.226640000000     0.514290000000     0.000510000000    -0.0933428  
C240     C      0.295990000000     0.529710000000     0.052880000000     0.0304762  
C241     C      0.250490000000     0.530970000000     0.039090000000     0.0426507  
C242     C      0.377630000000     0.567020000000     0.087290000000     0.0686345  
C243     C      0.342520000000     0.488150000000     0.060840000000     0.0718025  
C244     C      0.299740000000     0.488810000000     0.046870000000    -0.0822494  
C245     C      0.870560000000     0.941000000000     0.606250000000     0.0996791  
C246     C      0.897620000000     0.896210000000     0.570850000000     0.0750743  
C247     C      0.827320000000     0.897220000000     0.616520000000    -0.0979087  
C248     C      0.726170000000     0.802590000000     0.607880000000    -0.0820448  
C249     C      0.855410000000     0.853130000000     0.580130000000    -0.0911151  
C250     C      0.772490000000     0.805570000000     0.609720000000     0.0311481  
C251     C      0.819280000000     0.852630000000     0.603210000000     0.0407461  
C252     C      0.682770000000     0.757430000000     0.603340000000     0.0691611  
C253     C      0.729670000000     0.718150000000     0.604920000000     0.0735903  
C254     C      0.773290000000     0.762050000000     0.611600000000    -0.0834457  
C255     C      0.245890000000     0.187080000000     0.481690000000     0.103576   
C256     C      0.224820000000     0.240600000000     0.510480000000     0.0724964  
C257     C      0.292560000000     0.226400000000     0.472330000000    -0.0995579  
C258     C      0.399120000000     0.313440000000     0.487470000000    -0.0858557  
C259     C      0.270540000000     0.280240000000     0.500540000000    -0.089317   
C260     C      0.356080000000     0.315080000000     0.475310000000     0.0307134  
C261     C      0.305720000000     0.273290000000     0.482510000000     0.0397492  
C262     C      0.445500000000     0.356330000000     0.488150000000     0.068965   
C263     C      0.407840000000     0.400480000000     0.460920000000     0.0690201  
C264     C      0.361400000000     0.358730000000     0.459640000000    -0.0873248  
C265     C      0.900890000000     0.072080000000     0.500830000000     0.108081   
C266     C      0.954860000000     0.143230000000     0.538120000000     0.0768644  
C267     C      0.860040000000     0.075050000000     0.512040000000    -0.0997548  
C268     C      0.811280000000     0.147130000000     0.542770000000    -0.0857313  
C269     C      0.914720000000     0.147680000000     0.548730000000    -0.0891456  
C270     C      0.822550000000     0.110790000000     0.553230000000     0.0323912  
C271     C      0.866530000000     0.111790000000     0.537550000000     0.0406357  
C272     C      0.765430000000     0.140890000000     0.552650000000     0.0745637  
C273     C      0.744600000000     0.066500000000     0.586890000000     0.076208   
C274     C      0.789390000000     0.070990000000     0.576720000000    -0.0862621  
C275     C      0.271690000000     0.120920000000     0.594740000000     0.10626    
C276     C      0.217430000000     0.041200000000     0.570890000000     0.065209   
C277     C      0.311900000000     0.120070000000     0.579190000000    -0.101109   
C278     C      0.387570000000     0.121630000000     0.525570000000    -0.0876867  
C279     C      0.256670000000     0.039840000000     0.554560000000    -0.0918395  
C280     C      0.347210000000     0.079070000000     0.540690000000     0.0300717  
C281     C      0.304670000000     0.079790000000     0.558020000000     0.039268   
C282     C      0.428650000000     0.120880000000     0.512280000000     0.0714589  
C283     C      0.389690000000     0.036400000000     0.525590000000     0.0619936  
C284     C      0.348430000000     0.035960000000     0.539780000000    -0.0872375  
C285     C      0.072280000000     0.725190000000     0.556790000000     0.103331   
C286     C      0.069610000000     0.721890000000     0.483620000000     0.0704748  
C287     C      0.060680000000     0.761730000000     0.553290000000    -0.102219   
C288     C      0.024940000000     0.835910000000     0.486350000000    -0.0876276  
C289     C      0.059840000000     0.759970000000     0.479590000000    -0.0886294  
C290     C      0.056420000000     0.827130000000     0.513400000000     0.0337921  
C291     C      0.057010000000     0.781250000000     0.514860000000     0.0397331  
C292     C      0.024280000000     0.879220000000     0.489290000000     0.0730568  
C293     C      0.085110000000     0.903950000000     0.544320000000     0.0747682  
C294     C      0.087650000000     0.862560000000     0.541530000000    -0.0904521  
C295     C      0.084090000000     0.407680000000     0.628550000000     0.103497   
C296     C      0.999070000000     0.364090000000     0.606870000000     0.0748583  
C297     C      0.081130000000     0.364510000000     0.643270000000    -0.0996437  
C298     C      0.083050000000     0.275230000000     0.628950000000    -0.0862018  
C299     C      0.995670000000     0.320340000000     0.619630000000    -0.0904749  
C300     C      0.039390000000     0.273840000000     0.638110000000     0.0312967  
C301     C      0.037900000000     0.319790000000     0.635630000000     0.0398908  
C302     C      0.083530000000     0.232710000000     0.624570000000     0.0731351  
C303     C      0.998820000000     0.185730000000     0.639530000000     0.0675283  
C304     C      0.997070000000     0.228160000000     0.644490000000    -0.0849039  
C305     C      0.981700000000     0.995580000000     0.878240000000     0.101629   
C306     C      0.033360000000     0.961390000000     0.890250000000     0.0715896  
C307     C      0.992880000000     0.003020000000     0.836520000000    -0.0997041  
C308     C      0.088280000000     0.037170000000     0.767360000000    -0.0845629  
C309     C      0.046090000000     0.969660000000     0.848880000000    -0.0903497  
C310     C      0.040090000000     0.002500000000     0.777980000000     0.0321846  
C311     C      0.026450000000     0.991520000000     0.821750000000     0.0388387  
C312     C      0.098050000000     0.052780000000     0.726090000000     0.0719454  
C313     C      0.014620000000     0.997600000000     0.705670000000     0.0748667  
C314     C      0.003460000000     0.981940000000     0.746450000000    -0.0857956  
C315     C      0.110370000000     0.026960000000     0.392570000000     0.10321    
C316     C      0.067600000000     0.070520000000     0.382080000000     0.0706799  
C317     C      0.107290000000     0.020280000000     0.349750000000    -0.0999341  
C318     C      0.099480000000     0.066370000000     0.249200000000    -0.0841286  
C319     C      0.065310000000     0.065300000000     0.339480000000    -0.0893231  
C320     C      0.076710000000     0.028820000000     0.278200000000     0.0316837  
C321     C      0.084090000000     0.038910000000     0.322980000000     0.0400652  
C322     C      0.086380000000     0.057500000000     0.207190000000     0.0730435  
C323     C      0.029830000000     0.974910000000     0.221890000000     0.0719384  
C324     C      0.043010000000     0.982290000000     0.264050000000    -0.0842902  
C325     C      0.838530000000     0.842560000000     0.993040000000     0.105272   
C326     C      0.811230000000     0.887130000000     0.028170000000     0.0738628  
C327     C      0.792780000000     0.800280000000     0.998550000000    -0.0993461  
C328     C      0.722590000000     0.716320000000     0.049960000000    -0.087386   
C329     C      0.765590000000     0.845680000000     0.034370000000    -0.0888809  
C330     C      0.715400000000     0.755040000000     0.038270000000     0.0309617  
C331     C      0.757510000000     0.800890000000     0.022510000000     0.0393605  
C332     C      0.683680000000     0.673340000000     0.064920000000     0.0627027  
C333     C      0.630990000000     0.706560000000     0.060150000000     0.0728747  
C334     C      0.669160000000     0.750180000000     0.044470000000    -0.0871055  
C335     C      0.328590000000     0.366050000000     0.997460000000     0.10404    
C336     C      0.339190000000     0.364680000000     0.070510000000     0.0751695  
C337     C      0.278920000000     0.329500000000     0.000380000000    -0.104238   
C338     C      0.176790000000     0.252850000000     0.067330000000    -0.0876087  
C339     C      0.289910000000     0.329250000000     0.074090000000    -0.0911363  
C340     C      0.214910000000     0.261890000000     0.041730000000     0.0330114  
C341     C      0.260110000000     0.309560000000     0.038780000000     0.0406481  
C342     C      0.137560000000     0.205320000000     0.072590000000     0.0738477  
C343     C      0.175000000000     0.176690000000     0.029390000000     0.0740718  
C344     C      0.213520000000     0.223290000000     0.022620000000    -0.0894721  
C345     C      0.867930000000     0.022680000000     0.161740000000     0.106119   
C346     C      0.918550000000     0.104960000000     0.141390000000     0.0712874  
C347     C      0.827970000000     0.029980000000     0.165470000000    -0.0986887  
C348     C      0.748090000000     0.061180000000     0.168190000000    -0.0865074  
C349     C      0.878780000000     0.112870000000     0.143690000000    -0.089835   
C350     C      0.786500000000     0.075490000000     0.141220000000     0.034755   
C351     C      0.832170000000     0.074250000000     0.153470000000     0.0396864  
C352     C      0.701060000000     0.051270000000     0.152470000000     0.0774366  
C353     C      0.730060000000     0.069480000000     0.084760000000     0.0797312  
C354     C      0.777540000000     0.081780000000     0.099460000000    -0.0890359  
C355     C      0.363120000000     0.033360000000     0.073150000000     0.106041   
C356     C      0.361490000000     0.013230000000     0.003350000000     0.0698534  
C357     C      0.317350000000     0.030500000000     0.065760000000    -0.101754   
C358     C      0.206570000000     0.977840000000     0.046290000000    -0.0890316  
C359     C      0.315900000000     0.010540000000     0.995300000000    -0.0888107  
C360     C      0.243130000000     0.011450000000     0.020960000000     0.0335958  
C361     C      0.293500000000     0.019020000000     0.026810000000     0.0395924  
C362     C      0.160030000000     0.973100000000     0.043840000000     0.0760223  
C363     C      0.184430000000     0.033550000000     0.991020000000     0.0754361  
C364     C      0.231720000000     0.038900000000     0.992400000000    -0.0874785  
C365     C      0.997230000000     0.689090000000     0.987300000000     0.0987812  
C366     C      0.951270000000     0.648700000000     0.046130000000     0.0746619  
C367     C      0.985070000000     0.725470000000     0.990780000000    -0.0955461  
C368     C      0.002930000000     0.809550000000     0.044000000000    -0.0834116  
C369     C      0.937320000000     0.683110000000     0.049410000000    -0.0888072  
C370     C      0.957390000000     0.767580000000     0.036570000000     0.0302759  
C371     C      0.957080000000     0.723780000000     0.023500000000     0.0382832  
C372     C      0.005080000000     0.848230000000     0.063530000000     0.050694   
C373     C      0.917750000000     0.806000000000     0.067390000000     0.0721835  
C374     C      0.914340000000     0.765840000000     0.048660000000    -0.0877408  
C375     C      0.045040000000     0.347610000000     0.026330000000     0.105138   
C376     C      0.962230000000     0.315940000000     0.045530000000     0.0765815  
C377     C      0.035160000000     0.300520000000     0.020080000000    -0.101437   
C378     C      0.001460000000     0.202880000000     0.986300000000    -0.0873398  
C379     C      0.951170000000     0.268910000000     0.038610000000    -0.0933556  
C380     C      0.976340000000     0.210720000000     0.016320000000     0.0327862  
C381     C      0.987380000000     0.260630000000     0.024630000000     0.0410721  
C382     C      0.997750000000     0.157850000000     0.983970000000     0.0787607  
C383     C      0.938980000000     0.125800000000     0.035620000000     0.0772568  
C384     C      0.942520000000     0.170650000000     0.039460000000    -0.0862922  
Co1      Co     0.002870000000     0.047280000000     0.087800000000     1.05249    
Co2      Co     0.006080000000     0.942190000000     0.032020000000     1.11485    
Co3      Co     0.048160000000     0.049020000000     0.002450000000     1.12253    
Co4      Co     0.946350000000     0.960860000000     0.095100000000     0.908636   
Co5      Co     0.121370000000     0.046930000000     0.537440000000     1.13589    
Co6      Co     0.030680000000     0.078410000000     0.586790000000     1.06998    
Co7      Co     0.013330000000     0.018740000000     0.506050000000     1.10485    
Co8      Co     0.123880000000     0.126320000000     0.593380000000     0.918897   
Co9      Co     0.023750000000     0.469630000000     0.974890000000     1.15699    
Co10     Co     0.017540000000     0.564940000000     0.046330000000     0.796815   
Co11     Co     0.960060000000     0.450510000000     0.060610000000     1.15581    
Co12     Co     0.060520000000     0.577550000000     0.007590000000     0.793732   
Co13     Co     0.084290000000     0.489660000000     0.509800000000     1.12539    
Co14     Co     0.085390000000     0.598580000000     0.549230000000     1.1162     
Co15     Co     0.992060000000     0.489660000000     0.542220000000     1.12745    
Co16     Co     0.106330000000     0.599060000000     0.479720000000     0.874622   
Co17     Co     0.505550000000     0.036390000000     0.103760000000     0.921367   
Co18     Co     0.592840000000     0.016820000000     0.014230000000     1.19665    
Co19     Co     0.513670000000     0.053100000000     0.004950000000     1.12115    
Co20     Co     0.540890000000     0.982030000000     0.096860000000     1.08499    
Co21     Co     0.498820000000     0.043530000000     0.567250000000     1.14038    
Co22     Co     0.615140000000     0.069290000000     0.509760000000     1.07211    
Co23     Co     0.576330000000     0.120030000000     0.505760000000     0.914359   
Co24     Co     0.580060000000     0.012900000000     0.593700000000     1.10932    
Co25     Co     0.500170000000     0.458950000000     0.992510000000     1.1369     
Co26     Co     0.499350000000     0.548360000000     0.069350000000     0.915736   
Co27     Co     0.486860000000     0.477220000000     0.083970000000     0.948856   
Co28     Co     0.583530000000     0.569000000000     0.013000000000     1.18322    
Co29     Co     0.592020000000     0.504680000000     0.525370000000     1.10849    
Co30     Co     0.575280000000     0.608640000000     0.561330000000     0.882158   
Co31     Co     0.494300000000     0.498960000000     0.552040000000     1.13879    
Co32     Co     0.609900000000     0.610620000000     0.511450000000     0.894521   
H1       H      0.603840000000     0.601580000000     0.890110000000     0.0214363  
H2       H      0.463270000000     0.510840000000     0.672090000000     0.024632   
H3       H      0.463400000000     0.477180000000     0.806880000000     0.0503115  
H4       H      0.458550000000     0.511140000000     0.745370000000     0.051776   
H5       H      0.605880000000     0.608810000000     0.815720000000     0.0509684  
H6       H      0.617000000000     0.575710000000     0.759530000000     0.0536998  
H7       H      0.461120000000     0.473490000000     0.880600000000     0.0245174  
H8       H      0.680610000000     0.598520000000     0.709300000000     0.0302401  
H9       H      0.578370000000     0.475960000000     0.407020000000     0.0234314  
H10      H      0.458510000000     0.431030000000     0.206940000000     0.0346621  
H11      H      0.540960000000     0.583730000000     0.318060000000     0.0554578  
H12      H      0.476520000000     0.439930000000     0.280550000000     0.0539138  
H13      H      0.558600000000     0.458980000000     0.333910000000     0.052532   
H14      H      0.601120000000     0.581620000000     0.260660000000     0.0564817  
H15      H      0.559600000000     0.599280000000     0.391140000000     0.0323543  
H16      H      0.642600000000     0.624890000000     0.198320000000     0.0304965  
H17      H      0.679190000000     0.760480000000     0.472630000000     0.0329259  
H18      H      0.544410000000     0.884490000000     0.553550000000     0.0276836  
H19      H      0.521900000000     0.758340000000     0.482820000000     0.0512848  
H20      H      0.544040000000     0.813720000000     0.534740000000     0.0527408  
H21      H      0.680970000000     0.837030000000     0.475670000000     0.0499034  
H22      H      0.662380000000     0.898370000000     0.453690000000     0.0526626  
H23      H      0.522150000000     0.683130000000     0.482330000000     0.0335935  
H24      H      0.711630000000     0.986340000000     0.440530000000     0.028416   
H25      H      0.619570000000     0.440110000000     0.624880000000     0.0269497  
H26      H      0.491910000000     0.153640000000     0.610390000000     0.0241399  
H27      H      0.472640000000     0.283230000000     0.588840000000     0.0468882  
H28      H      0.483220000000     0.222190000000     0.623350000000     0.049225   
H29      H      0.625570000000     0.367870000000     0.632090000000     0.0493808  
H30      H      0.632980000000     0.317770000000     0.588760000000     0.0524495  
H31      H      0.467470000000     0.356580000000     0.584220000000     0.0224645  
H32      H      0.699860000000     0.302650000000     0.574690000000     0.0301354  
H33      H      0.466040000000     0.024730000000     0.684860000000     0.0219357  
H34      H      0.573550000000     0.983690000000     0.897770000000     0.0200535  
H35      H      0.610130000000     0.062560000000     0.779180000000     0.0513628  
H36      H      0.578330000000     0.996180000000     0.824500000000     0.0522711  
H37      H      0.452970000000     0.006030000000     0.756930000000     0.0506835  
H38      H      0.462190000000     0.030730000000     0.822800000000     0.0536643  
H39      H      0.621090000000     0.077090000000     0.705950000000     0.0253752  
H40      H      0.408270000000     0.025920000000     0.876090000000     0.0302767  
H41      H      0.526190000000     0.956920000000     0.428130000000     0.0326408  
H42      H      0.473560000000     0.007360000000     0.194680000000     0.0136509  
H43      H      0.494120000000     0.050300000000     0.318340000000     0.0521695  
H44      H      0.452710000000     0.003310000000     0.264860000000     0.0526655  
H45      H      0.502950000000     0.924190000000     0.359550000000     0.0519493  
H46      H      0.543180000000     0.940010000000     0.300110000000     0.0551761  
H47      H      0.513170000000     0.079080000000     0.387290000000     0.0270323  
H48      H      0.587290000000     0.912680000000     0.257930000000     0.0318736  
H49      H      0.435670000000     0.614490000000     0.018380000000     0.031499   
H50      H      0.555110000000     0.891670000000     0.968850000000     0.0258073  
H51      H      0.582040000000     0.763610000000     0.970520000000     0.0503487  
H52      H      0.537890000000     0.812690000000     0.950460000000     0.0527655  
H53      H      0.441130000000     0.692060000000     0.027140000000     0.0515466  
H54      H      0.506510000000     0.763500000000     0.075740000000     0.0562456  
H55      H      0.576220000000     0.685840000000     0.963480000000     0.0227183  
H56      H      0.505620000000     0.803910000000     0.137780000000     0.0308769  
H57      H      0.538140000000     0.382570000000     0.139570000000     0.0264306  
H58      H      0.533810000000     0.177290000000     0.015640000000     0.0218124  
H59      H      0.584760000000     0.330170000000     0.018840000000     0.0496697  
H60      H      0.534140000000     0.250060000000     0.020660000000     0.0511954  
H61      H      0.553230000000     0.313940000000     0.147650000000     0.0505269  
H62      H      0.596710000000     0.267640000000     0.144650000000     0.0525065  
H63      H      0.560630000000     0.389570000000     0.010980000000     0.0224955  
H64      H      0.617980000000     0.214570000000     0.188640000000     0.0319854  
H65      H      0.696890000000     0.227230000000     0.466090000000     0.02744    
H66      H      0.973590000000     0.340030000000     0.497740000000     0.023776   
H67      H      0.833080000000     0.199640000000     0.437460000000     0.0508025  
H68      H      0.898820000000     0.263920000000     0.482060000000     0.0498624  
H69      H      0.777310000000     0.295580000000     0.455920000000     0.0514833  
H70      H      0.840710000000     0.340820000000     0.408460000000     0.0542428  
H71      H      0.750260000000     0.130450000000     0.448510000000     0.031721   
H72      H      0.878430000000     0.427760000000     0.388800000000     0.0312039  
H73      H      0.380400000000     0.918620000000     0.558440000000     0.0218593  
H74      H      0.216430000000     0.658010000000     0.619420000000     0.0323582  
H75      H      0.406820000000     0.791590000000     0.625900000000     0.0513446  
H76      H      0.291670000000     0.731220000000     0.643210000000     0.0535625  
H77      H      0.312780000000     0.836170000000     0.559210000000     0.0552172  
H78      H      0.332600000000     0.770990000000     0.518090000000     0.0576518  
H79      H      0.474630000000     0.876290000000     0.626050000000     0.0217043  
H80      H      0.294300000000     0.733480000000     0.452600000000     0.0315758  
H81      H      0.896460000000     0.525440000000     0.476550000000     0.0287828  
H82      H      0.741030000000     0.625740000000     0.459290000000     0.0303113  
H83      H      0.917750000000     0.662410000000     0.556090000000     0.0527961  
H84      H      0.821380000000     0.632330000000     0.453690000000     0.0537507  
H85      H      0.831950000000     0.546620000000     0.471260000000     0.052399   
H86      H      0.821360000000     0.592000000000     0.581540000000     0.0554043  
H87      H      0.981770000000     0.640570000000     0.560460000000     0.0276778  
H88      H      0.763250000000     0.577730000000     0.635840000000     0.0301034  
H89      H      0.418600000000     0.545850000000     0.478830000000     0.0326584  
H90      H      0.224620000000     0.576160000000     0.556300000000     0.0375079  
H91      H      0.400560000000     0.663210000000     0.557130000000     0.051011   
H92      H      0.310300000000     0.601140000000     0.564840000000     0.0543102  
H93      H      0.354530000000     0.563380000000     0.457310000000     0.0520091  
H94      H      0.323550000000     0.619590000000     0.433650000000     0.0538716  
H95      H      0.465900000000     0.644900000000     0.577980000000     0.0301692  
H96      H      0.260810000000     0.606360000000     0.376760000000     0.0332382  
H97      H      0.969360000000     0.479460000000     0.667290000000     0.0223502  
H98      H      0.956450000000     0.499410000000     0.873610000000     0.0297857  
H99      H      0.085870000000     0.631140000000     0.738460000000     0.050901   
H100     H      0.951520000000     0.503560000000     0.799950000000     0.0513714  
H101     H      0.967830000000     0.481560000000     0.741490000000     0.0501714  
H102     H      0.105620000000     0.614530000000     0.801150000000     0.053378   
H103     H      0.089210000000     0.625770000000     0.665740000000     0.0343222  
H104     H      0.165980000000     0.657600000000     0.857790000000     0.0309075  
H105     H      0.072130000000     0.467570000000     0.382700000000     0.0247824  
H106     H      0.004950000000     0.439630000000     0.173340000000     0.0268946  
H107     H      0.002620000000     0.557850000000     0.305740000000     0.0511788  
H108     H      0.010960000000     0.437760000000     0.247340000000     0.051849   
H109     H      0.063630000000     0.463520000000     0.308000000000     0.0510818  
H110     H      0.052920000000     0.587780000000     0.248420000000     0.0537125  
H111     H      0.013210000000     0.562390000000     0.379760000000     0.0296505  
H112     H      0.068160000000     0.647690000000     0.193260000000     0.0295098  
H113     H      0.616300000000     0.178340000000     0.945620000000     0.0206981  
H114     H      0.909750000000     0.338420000000     0.941150000000     0.0204682  
H115     H      0.785500000000     0.209170000000     0.979750000000     0.0513969  
H116     H      0.834330000000     0.263200000000     0.924830000000     0.0518712  
H117     H      0.686870000000     0.254830000000     0.923240000000     0.0499168  
H118     H      0.748520000000     0.324410000000     0.961710000000     0.0548859  
H119     H      0.715790000000     0.134710000000     0.000910000000     0.0222466  
H120     H      0.774780000000     0.410540000000     0.971490000000     0.0326361  
H121     H      0.426590000000     0.847880000000     0.073770000000     0.0327271  
H122     H      0.144700000000     0.680130000000     0.114990000000     0.0296005  
H123     H      0.275320000000     0.846050000000     0.109830000000     0.0522268  
H124     H      0.223220000000     0.751930000000     0.136220000000     0.0522138  
H125     H      0.348740000000     0.773150000000     0.070030000000     0.0521511  
H126     H      0.280450000000     0.755200000000     0.018950000000     0.0566902  
H127     H      0.355590000000     0.921410000000     0.114790000000     0.0255414  
H128     H      0.249120000000     0.696500000000     0.963360000000     0.0308737  
H129     H      0.837890000000     0.442380000000     0.094620000000     0.0228864  
H130     H      0.633360000000     0.457440000000     0.953260000000     0.0189127  
H131     H      0.802610000000     0.534950000000     0.985500000000     0.0545052  
H132     H      0.707040000000     0.449090000000     0.962430000000     0.0503463  
H133     H      0.752930000000     0.424410000000     0.080830000000     0.0526006  
H134     H      0.725900000000     0.493020000000     0.088000000000     0.0558782  
H135     H      0.886990000000     0.552680000000     0.000160000000     0.0315368  
H136     H      0.677410000000     0.513140000000     0.130220000000     0.0299977  
H137     H      0.407660000000     0.598540000000     0.102480000000     0.0316829  
H138     H      0.166940000000     0.503560000000     0.958480000000     0.0241684  
H139     H      0.269720000000     0.457360000000     0.031650000000     0.051576   
H140     H      0.241410000000     0.500550000000     0.979120000000     0.0544509  
H141     H      0.333920000000     0.601190000000     0.079260000000     0.0497306  
H142     H      0.246710000000     0.559310000000     0.096190000000     0.0552392  
H143     H      0.344180000000     0.456130000000     0.054800000000     0.0352511  
H144     H      0.189810000000     0.575790000000     0.129030000000     0.031257   
H145     H      0.647860000000     0.756830000000     0.599210000000     0.032436   
H146     H      0.923680000000     0.892950000000     0.552870000000     0.030423   
H147     H      0.807810000000     0.761970000000     0.615390000000     0.0512502  
H148     H      0.850850000000     0.820340000000     0.567680000000     0.0543534  
H149     H      0.723340000000     0.834910000000     0.606720000000     0.0499928  
H150     H      0.799960000000     0.898090000000     0.634530000000     0.0526048  
H151     H      0.732290000000     0.685790000000     0.603320000000     0.032161   
H152     H      0.835920000000     0.986040000000     0.644610000000     0.0288427  
H153     H      0.477470000000     0.354640000000     0.500790000000     0.0224022  
H154     H      0.199990000000     0.248110000000     0.526060000000     0.0280319  
H155     H      0.329430000000     0.361210000000     0.448420000000     0.0513363  
H156     H      0.279040000000     0.316110000000     0.508670000000     0.0514586  
H157     H      0.396650000000     0.280110000000     0.499230000000     0.048398   
H158     H      0.318520000000     0.220520000000     0.456750000000     0.0539916  
H159     H      0.409810000000     0.434120000000     0.450620000000     0.0272188  
H160     H      0.270580000000     0.133560000000     0.443040000000     0.0317384  
H161     H      0.756840000000     0.168610000000     0.542340000000     0.0305875  
H162     H      0.991450000000     0.170820000000     0.549020000000     0.0305515  
H163     H      0.797350000000     0.042600000000     0.586020000000     0.0533276  
H164     H      0.921260000000     0.177640000000     0.567340000000     0.0517565  
H165     H      0.836490000000     0.178830000000     0.525190000000     0.0500096  
H166     H      0.822950000000     0.048390000000     0.501180000000     0.056634   
H167     H      0.719270000000     0.034030000000     0.603670000000     0.0232372  
H168     H      0.838860000000     0.000460000000     0.454200000000     0.0317507  
H169     H      0.459660000000     0.154800000000     0.501960000000     0.0249815  
H170     H      0.180990000000     0.009630000000     0.566410000000     0.0058449  
H171     H      0.318550000000     0.002130000000     0.551290000000     0.0484262  
H172     H      0.248830000000     0.007830000000     0.538380000000     0.0496073  
H173     H      0.387850000000     0.155580000000     0.524300000000     0.0483635  
H174     H      0.348920000000     0.150650000000     0.584260000000     0.0520846  
H175     H      0.389430000000     0.002410000000     0.526330000000     0.0187773  
H176     H      0.335090000000     0.205500000000     0.624410000000     0.0311796  
H177     H      0.999460000000     0.885310000000     0.468420000000     0.0227236  
H178     H      0.073020000000     0.707200000000     0.455520000000     0.0264208  
H179     H      0.113780000000     0.858110000000     0.562080000000     0.0522897  
H180     H      0.056910000000     0.774040000000     0.449240000000     0.0518045  
H181     H      0.000420000000     0.809290000000     0.463970000000     0.0512243  
H182     H      0.056030000000     0.776260000000     0.580940000000     0.0547664  
H183     H      0.109410000000     0.929310000000     0.567640000000     0.0262433  
H184     H      0.066870000000     0.728920000000     0.636340000000     0.0284169  
H185     H      0.118360000000     0.236490000000     0.616540000000     0.0277769  
H186     H      0.966100000000     0.362060000000     0.591960000000     0.0227811  
H187     H      0.962500000000     0.225000000000     0.652210000000     0.0490895  
H188     H      0.961070000000     0.287110000000     0.613620000000     0.0500287  
H189     H      0.116620000000     0.308960000000     0.622770000000     0.0510641  
H190     H      0.113390000000     0.365780000000     0.658820000000     0.0533854  
H191     H      0.965220000000     0.151110000000     0.643290000000     0.0303254  
H192     H      0.173970000000     0.454140000000     0.660610000000     0.031854   
H193     H      0.135170000000     0.081250000000     0.719230000000     0.0271064  
H194     H      0.050740000000     0.945820000000     0.910520000000     0.024484   
H195     H      0.965870000000     0.954850000000     0.753430000000     0.0535178  
H196     H      0.071510000000     0.959440000000     0.838290000000     0.0527645  
H197     H      0.117590000000     0.053910000000     0.791020000000     0.0514123  
H198     H      0.976040000000     0.018590000000     0.815630000000     0.0563434  
H199     H      0.984480000000     0.981360000000     0.682540000000     0.0349391  
H200     H      0.919550000000     0.025850000000     0.860830000000     0.0328569  
H201     H      0.103600000000     0.088090000000     0.185970000000     0.0347669  
H202     H      0.051290000000     0.090410000000     0.393210000000     0.0292389  
H203     H      0.024840000000     0.952320000000     0.285670000000     0.0528119  
H204     H      0.047260000000     0.080450000000     0.319580000000     0.0556916  
H205     H      0.126020000000     0.102750000000     0.259050000000     0.0540244  
H206     H      0.122320000000     0.999950000000     0.337260000000     0.0555085  
H207     H      0.001590000000     0.938890000000     0.212400000000     0.0297749  
H208     H      0.156200000000     0.977890000000     0.399350000000     0.03199    
H209     H      0.690650000000     0.643920000000     0.072640000000     0.0227183  
H210     H      0.816950000000     0.920410000000     0.040740000000     0.0321178  
H211     H      0.661960000000     0.779290000000     0.036380000000     0.0508083  
H212     H      0.738790000000     0.848500000000     0.051570000000     0.0533293  
H213     H      0.758220000000     0.719030000000     0.047690000000     0.049279   
H214     H      0.785600000000     0.766650000000     0.985700000000     0.0524486  
H215     H      0.595310000000     0.703520000000     0.063330000000     0.031451   
H216     H      0.860960000000     0.793670000000     0.946290000000     0.0318711  
H217     H      0.108080000000     0.199160000000     0.092060000000     0.0313941  
H218     H      0.361240000000     0.377340000000     0.099110000000     0.0396433  
H219     H      0.243150000000     0.228840000000     0.003630000000     0.052714   
H220     H      0.276460000000     0.314560000000     0.104310000000     0.0563567  
H221     H      0.177530000000     0.282140000000     0.083210000000     0.0521731  
H222     H      0.255670000000     0.314510000000     0.972680000000     0.0545796  
H223     H      0.176130000000     0.147960000000     0.014120000000     0.0232064  
H224     H      0.311190000000     0.365080000000     0.918050000000     0.0305002  
H225     H      0.671460000000     0.038460000000     0.173640000000     0.0307233  
H226     H      0.953110000000     0.134890000000     0.130820000000     0.0300534  
H227     H      0.806140000000     0.092380000000     0.077650000000     0.0523171  
H228     H      0.883410000000     0.147870000000     0.134640000000     0.0505434  
H229     H      0.753760000000     0.055560000000     0.200710000000     0.053325   
H230     H      0.792550000000     0.999990000000     0.174410000000     0.0572269  
H231     H      0.724190000000     0.072480000000     0.051770000000     0.0211187  
H232     H      0.814020000000     0.936440000000     0.193330000000     0.0342874  
H233     H      0.133130000000     0.946920000000     0.064630000000     0.0282651  
H234     H      0.377580000000     0.006250000000     0.978020000000     0.0268077  
H235     H      0.259510000000     0.065270000000     0.972370000000     0.0512006  
H236     H      0.297750000000     0.000690000000     0.964950000000     0.0523291  
H237     H      0.214190000000     0.955750000000     0.068430000000     0.0532087  
H238     H      0.299600000000     0.036150000000     0.090670000000     0.0571937  
H239     H      0.176800000000     0.056050000000     0.969370000000     0.0210487  
H240     H      0.356620000000     0.048020000000     0.150050000000     0.032649   
H241     H      0.041460000000     0.879270000000     0.069870000000     0.0246961  
H242     H      0.938010000000     0.619450000000     0.068930000000     0.0305142  
H243     H      0.878490000000     0.733460000000     0.044200000000     0.0494528  
H244     H      0.915310000000     0.680230000000     0.074850000000     0.0541555  
H245     H      0.037180000000     0.811670000000     0.036630000000     0.0513152  
H246     H      0.000150000000     0.756580000000     0.969950000000     0.0534094  
H247     H      0.883820000000     0.803810000000     0.075960000000     0.026109   
H248     H      0.047320000000     0.735520000000     0.923640000000     0.0319584  
H249     H      0.020480000000     0.154260000000     0.962310000000     0.0217824  
H250     H      0.932030000000     0.320240000000     0.054650000000     0.0202103  
H251     H      0.921150000000     0.174220000000     0.062350000000     0.0480627  
H252     H      0.913770000000     0.239530000000     0.042880000000     0.0499255  
H253     H      0.025710000000     0.231870000000     0.965890000000     0.0504473  
H254     H      0.065010000000     0.295140000000     0.012110000000     0.054342   
H255     H      0.914250000000     0.096270000000     0.055390000000     0.0290273  
H256     H      0.137460000000     0.378470000000     0.012980000000     0.0309172  
N1       N      0.542570000000     0.545490000000     0.672670000000    -0.204133   
N2       N      0.532790000000     0.536690000000     0.890820000000    -0.208917   
N3       N      0.518580000000     0.501560000000     0.190620000000    -0.182881   
N4       N      0.570820000000     0.539060000000     0.404350000000    -0.20135    
N5       N      0.604160000000     0.934430000000     0.515780000000    -0.205547   
N6       N      0.600870000000     0.716420000000     0.479140000000    -0.183381   
N7       N      0.566830000000     0.194960000000     0.590840000000    -0.200288   
N8       N      0.543690000000     0.403940000000     0.602330000000    -0.202647   
N9       N      0.516230000000     0.000890000000     0.903150000000    -0.219194   
N10      N      0.544190000000     0.050390000000     0.690110000000    -0.211366   
N11      N      0.519110000000     0.975400000000     0.206580000000    -0.197455   
N12      N      0.523740000000     0.021470000000     0.411890000000    -0.205656   
N13      N      0.541720000000     0.874870000000     0.033380000000    -0.207191   
N14      N      0.506890000000     0.644870000000     0.992630000000    -0.199242   
N15      N      0.561710000000     0.175510000000     0.077790000000    -0.20101    
N16      N      0.546520000000     0.389780000000     0.074550000000    -0.201471   
N17      N      0.948200000000     0.384260000000     0.465810000000    -0.214207   
N18      N      0.718050000000     0.173850000000     0.459240000000    -0.191288   
N19      N      0.229160000000     0.674750000000     0.555150000000    -0.205497   
N20      N      0.432890000000     0.903170000000     0.591050000000    -0.208902   
N21      N      0.733540000000     0.601880000000     0.522570000000    -0.207329   
N22      N      0.943570000000     0.581290000000     0.519200000000    -0.210957   
N23      N      0.222860000000     0.582750000000     0.490040000000    -0.206578   
N24      N      0.445440000000     0.592550000000     0.531150000000    -0.203018   
N25      N      0.033160000000     0.554480000000     0.880780000000    -0.203832   
N26      N      0.029920000000     0.551930000000     0.661140000000    -0.204841   
N27      N      0.022970000000     0.513980000000     0.167010000000    -0.199361   
N28      N      0.044800000000     0.516440000000     0.386730000000    -0.197136   
N29      N      0.872600000000     0.373040000000     0.963310000000    -0.217361   
N30      N      0.660860000000     0.151510000000     0.975590000000    -0.212019   
N31      N      0.167450000000     0.677830000000     0.055000000000    -0.185639   
N32      N      0.396650000000     0.890380000000     0.093780000000    -0.204272   
N33      N      0.640080000000     0.483130000000     0.014170000000    -0.216586   
N34      N      0.868230000000     0.498060000000     0.047830000000    -0.20753    
N35      N      0.163980000000     0.533760000000     0.014870000000    -0.206836   
N36      N      0.381730000000     0.527450000000     0.079880000000    -0.179459   
N37      N      0.905600000000     0.940320000000     0.582870000000    -0.206111   
N38      N      0.685170000000     0.716320000000     0.598670000000    -0.182189   
N39      N      0.213140000000     0.193980000000     0.503290000000    -0.202075   
N40      N      0.448820000000     0.399910000000     0.478060000000    -0.206008   
N41      N      0.948010000000     0.103780000000     0.517170000000    -0.206132   
N42      N      0.731320000000     0.099650000000     0.572730000000    -0.203383   
N43      N      0.224150000000     0.081950000000     0.589270000000    -0.213349   
N44      N      0.430240000000     0.078840000000     0.513460000000    -0.209802   
N45      N      0.077900000000     0.705880000000     0.521700000000    -0.187359   
N46      N      0.053710000000     0.912470000000     0.518600000000    -0.209677   
N47      N      0.043910000000     0.406630000000     0.607600000000    -0.208545   
N48      N      0.041430000000     0.188240000000     0.628200000000    -0.190877   
N49      N      0.003590000000     0.976560000000     0.905390000000    -0.209794   
N50      N      0.060980000000     0.034310000000     0.695700000000    -0.199945   
N51      N      0.088800000000     0.050800000000     0.408910000000    -0.205712   
N52      N      0.049750000000     0.012710000000     0.193860000000    -0.196753   
N53      N      0.849500000000     0.884360000000     0.012610000000    -0.203079   
N54      N      0.637740000000     0.667840000000     0.068470000000    -0.207337   
N55      N      0.359470000000     0.381470000000     0.032670000000    -0.204998   
N56      N      0.137000000000     0.167620000000     0.053850000000    -0.207744   
N57      N      0.911530000000     0.059100000000     0.145950000000    -0.19631    
N58      N      0.691730000000     0.052580000000     0.110780000000    -0.20858    
N59      N      0.385530000000     0.025310000000     0.041590000000    -0.210997   
N60      N      0.149220000000     0.001390000000     0.017080000000    -0.209057   
N61      N      0.983410000000     0.653230000000     0.017180000000    -0.18555    
N62      N      0.962900000000     0.846930000000     0.074620000000    -0.210136   
N63      N      0.007730000000     0.355230000000     0.037140000000    -0.219007   
N64      N      0.969900000000     0.120950000000     0.010920000000    -0.207714   
O1       O      0.959730000000     0.054100000000     0.047080000000    -0.429065   
O2       O      0.933330000000     0.911790000000     0.019550000000    -0.42546    
O3       O      0.998610000000     0.011310000000     0.962660000000    -0.461427   
O4       O      0.929890000000     0.007070000000     0.116190000000    -0.451254   
O5       O      0.011490000000     0.951840000000     0.971900000000    -0.443899   
O6       O      0.988720000000     0.081810000000     0.123490000000    -0.403557   
O7       O      0.903430000000     0.950470000000     0.049700000000    -0.420045   
O8       O      0.015980000000     0.085860000000     0.002130000000    -0.461317   
O9       O      0.045620000000     0.043150000000     0.129370000000    -0.424609   
O10      O      0.072480000000     0.967440000000     0.041560000000    -0.472441   
O11      O      0.098950000000     0.088440000000     0.038480000000    -0.475977   
O12      O      0.929990000000     0.891980000000     0.093790000000    -0.388255   
O13      O      0.004960000000     0.927090000000     0.086800000000    -0.464366   
O14      O      0.058890000000     0.111020000000     0.074030000000    -0.402599   
O15      O      0.988270000000     0.970060000000     0.144540000000    -0.410397   
O16      O      0.091780000000     0.023050000000     0.994130000000    -0.443847   
O17      O      0.009180000000     0.003230000000     0.051170000000    -0.548881   
O18      O      0.107830000000     0.041190000000     0.477540000000    -0.441674   
O19      O      0.005600000000     0.105430000000     0.620700000000    -0.40277    
O20      O      0.978890000000     0.054120000000     0.505610000000    -0.447571   
O21      O      0.145610000000     0.164450000000     0.544000000000    -0.409922   
O22      O      0.023920000000     0.116810000000     0.541570000000    -0.425424   
O23      O      0.166480000000     0.113910000000     0.522320000000    -0.442592   
O24      O      0.082690000000     0.153350000000     0.604320000000    -0.466963   
O25      O      0.051370000000     0.060130000000     0.463070000000    -0.454039   
O26      O      0.140670000000     0.048860000000     0.592680000000    -0.458799   
O27      O      0.961790000000     0.023530000000     0.580470000000    -0.394593   
O28      O      0.031600000000     0.969100000000     0.497250000000    -0.435392   
O29      O      0.108200000000     0.091750000000     0.646850000000    -0.419448   
O30      O      0.032530000000     0.039550000000     0.630490000000    -0.442978   
O31      O      0.081280000000     0.983250000000     0.550180000000    -0.475827   
O32      O      0.184020000000     0.123150000000     0.596620000000    -0.412159   
O33      O      0.973920000000     0.975650000000     0.544920000000    -0.474789   
O34      O      0.068830000000     0.061110000000     0.552890000000    -0.549395   
O35      O      0.956440000000     0.420390000000     0.970060000000    -0.472824   
O36      O      0.014260000000     0.616370000000     0.060570000000    -0.371933   
O37      O      0.925320000000     0.480720000000     0.078250000000    -0.45568    
O38      O      0.065440000000     0.575310000000     0.947950000000    -0.363408   
O39      O      0.948100000000     0.533410000000     0.029840000000    -0.401989   
O40      O      0.005940000000     0.502550000000     0.935380000000    -0.468293   
O41      O      0.013450000000     0.604920000000     0.994590000000    -0.37333    
O42      O      0.911590000000     0.424700000000     0.016480000000    -0.466146   
O43      O      0.094760000000     0.512250000000     0.971370000000    -0.441355   
O44      O      0.009690000000     0.543640000000     0.104060000000    -0.363888   
O45      O      0.980790000000     0.406610000000     0.051480000000    -0.488803   
O46      O      0.108470000000     0.640430000000     0.003630000000    -0.36196    
O47      O      0.091450000000     0.607470000000     0.065110000000    -0.378711   
O48      O      0.040960000000     0.431930000000     0.010610000000    -0.477362   
O49      O      0.109570000000     0.560060000000     0.020680000000    -0.398843   
O50      O      0.004920000000     0.473220000000     0.106490000000    -0.451155   
O51      O      0.013200000000     0.506240000000     0.022150000000    -0.521248   
O52      O      0.022960000000     0.429310000000     0.500730000000    -0.462921   
O53      O      0.106800000000     0.661090000000     0.557860000000    -0.420292   
O54      O      0.965720000000     0.524360000000     0.515670000000    -0.474805   
O55      O      0.053410000000     0.558320000000     0.444370000000    -0.414971   
O56      O      0.018230000000     0.591370000000     0.543670000000    -0.431587   
O57      O      0.075210000000     0.502210000000     0.449420000000    -0.413229   
O58      O      0.077900000000     0.640770000000     0.493050000000    -0.416066   
O59      O      0.975770000000     0.459120000000     0.490840000000    -0.457465   
O60      O      0.147930000000     0.538950000000     0.517700000000    -0.470305   
O61      O      0.073410000000     0.581730000000     0.603480000000    -0.442319   
O62      O      0.009550000000     0.446040000000     0.571140000000    -0.454717   
O63      O      0.164190000000     0.645030000000     0.507980000000    -0.458455   
O64      O      0.150870000000     0.608950000000     0.565630000000    -0.407294   
O65      O      0.088450000000     0.472280000000     0.565740000000    -0.4358     
O66      O      0.150570000000     0.576730000000     0.460900000000    -0.392565   
O67      O      0.000010000000     0.516630000000     0.597370000000    -0.440486   
O68      O      0.064470000000     0.537830000000     0.526320000000    -0.584437   
O69      O      0.460530000000     0.052700000000     0.076170000000    -0.434988   
O70      O      0.556490000000     0.949730000000     0.011990000000    -0.479871   
O71      O      0.492830000000     0.003820000000     0.967410000000    -0.468347   
O72      O      0.478390000000     0.933520000000     0.080690000000    -0.457422   
O73      O      0.565470000000     0.015640000000     0.961180000000    -0.492146   
O74      O      0.447900000000     0.971250000000     0.108320000000    -0.441416   
O75      O      0.559230000000     0.937010000000     0.077400000000    -0.406221   
O76      O      0.447680000000     0.014400000000     0.021160000000    -0.454305   
O77      O      0.540430000000     0.022480000000     0.148250000000    -0.462194   
O78      O      0.631320000000     0.082340000000     0.013610000000    -0.501024   
O79      O      0.533350000000     0.107920000000     0.038890000000    -0.449092   
O80      O      0.609570000000     0.029630000000     0.114000000000    -0.417836   
O81      O      0.635020000000     0.018410000000     0.058000000000    -0.487403   
O82      O      0.556900000000     0.103690000000     0.102870000000    -0.40026    
O83      O      0.534860000000     0.951320000000     0.146890000000    -0.406521   
O84      O      0.577470000000     0.097160000000     0.980730000000    -0.450719   
O85      O      0.539620000000     0.021040000000     0.049010000000    -0.555427   
O86      O      0.477370000000     0.043560000000     0.512690000000    -0.461301   
O87      O      0.629380000000     0.016330000000     0.516110000000    -0.401158   
O88      O      0.551480000000     0.084600000000     0.455840000000    -0.441815   
O89      O      0.512280000000     0.964660000000     0.606650000000    -0.444614   
O90      O      0.567530000000     0.027980000000     0.471920000000    -0.450175   
O91      O      0.467510000000     0.977560000000     0.560040000000    -0.468511   
O92      O      0.572190000000     0.967380000000     0.556070000000    -0.466585   
O93      O      0.513380000000     0.118590000000     0.505540000000    -0.411198   
O94      O      0.511600000000     0.039660000000     0.624430000000    -0.475082   
O95      O      0.663100000000     0.092770000000     0.470750000000    -0.405505   
O96      O      0.599130000000     0.159420000000     0.552740000000    -0.409241   
O97      O      0.650970000000     0.048700000000     0.589620000000    -0.450224   
O98      O      0.666710000000     0.109950000000     0.550220000000    -0.422252   
O99      O      0.526920000000     0.113000000000     0.578970000000    -0.432496   
O100     O      0.587570000000     0.055380000000     0.634900000000    -0.465067   
O101     O      0.644210000000     0.145900000000     0.489310000000    -0.453283   
O102     O      0.564270000000     0.054420000000     0.547860000000    -0.555687   
O103     O      0.431550000000     0.435500000000     0.000550000000    -0.437831   
O104     O      0.478110000000     0.568450000000     0.019420000000    -0.398039   
O105     O      0.430770000000     0.493140000000     0.077670000000    -0.438195   
O106     O      0.572430000000     0.555290000000     0.954870000000    -0.459351   
O107     O      0.464830000000     0.567970000000     0.098670000000    -0.36905    
O108     O      0.495530000000     0.497050000000     0.949500000000    -0.467476   
O109     O      0.554180000000     0.609240000000     0.999690000000    -0.449579   
O110     O      0.436170000000     0.416930000000     0.064930000000    -0.407702   
O111     O      0.568740000000     0.475680000000     0.981340000000    -0.444487   
O112     O      0.523560000000     0.533070000000     0.124310000000    -0.428891   
O113     O      0.531910000000     0.451270000000     0.091420000000    -0.388975   
O114     O      0.601430000000     0.586500000000     0.068060000000    -0.460491   
O115     O      0.555080000000     0.614880000000     0.075640000000    -0.377852   
O116     O      0.504460000000     0.415560000000     0.031640000000    -0.459324   
O117     O      0.613700000000     0.534990000000     0.023290000000    -0.502102   
O118     O      0.467630000000     0.456710000000     0.135930000000    -0.383663   
O119     O      0.520760000000     0.512760000000     0.032620000000    -0.601391   
O120     O      0.529230000000     0.446030000000     0.505210000000    -0.429476   
O121     O      0.565630000000     0.640300000000     0.508650000000    -0.429179   
O122     O      0.474000000000     0.540420000000     0.529730000000    -0.470012   
O123     O      0.577350000000     0.581540000000     0.461130000000    -0.394147   
O124     O      0.510510000000     0.598140000000     0.572900000000    -0.38542    
O125     O      0.598230000000     0.525060000000     0.467790000000    -0.437      
O126     O      0.640140000000     0.671690000000     0.486300000000    -0.367841   
O127     O      0.481650000000     0.476500000000     0.498550000000    -0.458967   
O128     O      0.655390000000     0.553720000000     0.544090000000    -0.447674   
O129     O      0.580730000000     0.582130000000     0.613180000000    -0.39394    
O130     O      0.506020000000     0.446490000000     0.575900000000    -0.431943   
O131     O      0.651160000000     0.645310000000     0.563040000000    -0.421796   
O132     O      0.601380000000     0.668630000000     0.584110000000    -0.369804   
O133     O      0.586010000000     0.481960000000     0.580100000000    -0.44675    
O134     O      0.666280000000     0.606760000000     0.496730000000    -0.389428   
O135     O      0.504180000000     0.521040000000     0.608510000000    -0.439187   
O136     O      0.563510000000     0.545960000000     0.538020000000    -0.58553    
S1       S      0.644510000000     0.583970000000     0.678270000000    -0.0185948  
S2       S      0.605090000000     0.588970000000     0.175050000000    -0.00858735 
S3       S      0.683080000000     0.993140000000     0.466480000000    -0.0145642  
S4       S      0.666720000000     0.253870000000     0.575920000000    -0.0260385  
S5       S      0.435650000000     0.015140000000     0.904590000000    -0.0466297  
S6       S      0.574080000000     0.930690000000     0.223480000000    -0.0263436  
S7       S      0.520580000000     0.845880000000     0.115180000000    -0.00648434 
S8       S      0.601830000000     0.182050000000     0.157400000000    -0.0254087  
S9       S      0.918510000000     0.437600000000     0.414800000000    -0.0271081  
S10      S      0.254580000000     0.698140000000     0.472960000000    -0.0275768  
S11      S      0.732180000000     0.582050000000     0.606520000000    -0.0248977  
S12      S      0.225390000000     0.591970000000     0.405200000000    -0.0420281  
S13      S      0.131140000000     0.628590000000     0.885310000000    -0.0179633  
S14      S      0.054310000000     0.612370000000     0.164840000000    -0.0085111  
S15      S      0.823230000000     0.421700000000     0.973670000000    -0.0348138  
S16      S      0.205230000000     0.670640000000     0.982560000000    -0.011206   
S17      S      0.647190000000     0.508500000000     0.096230000000    -0.00313689 
S18      S      0.160780000000     0.563950000000     0.093300000000    -0.00859818 
S19      S      0.875970000000     0.995170000000     0.623070000000    -0.0193339  
S20      S      0.231930000000     0.130210000000     0.463220000000    -0.0331783  
S21      S      0.888350000000     0.026660000000     0.465330000000    -0.0410013  
S22      S      0.285370000000     0.172320000000     0.623130000000    -0.0399748  
S23      S      0.075390000000     0.704220000000     0.607850000000    -0.0182958  
S24      S      0.139860000000     0.462510000000     0.639080000000    -0.0296779  
S25      S      0.936430000000     0.008470000000     0.893380000000    -0.0330893  
S26      S      0.139410000000     0.000220000000     0.423110000000    -0.0411313  
S27      S      0.880340000000     0.839350000000     0.961200000000    -0.0386538  
S28      S      0.349040000000     0.387270000000     0.947240000000    -0.0353922  
S29      S      0.860250000000     0.966050000000     0.178790000000    -0.0398755  
S30      S      0.386980000000     0.042890000000     0.124910000000    -0.0404057  
S31      S      0.036500000000     0.695560000000     0.948000000000    -0.0181609  
S32      S      0.107100000000     0.395250000000     0.022970000000    -0.0379962  


