data_structure

_audit_creation_method RASPA-1.0
_audit_creation_date 2023-6-4
_audit_author_name 'Poobodin Mano'

_cell_length_a    22.8269
_cell_length_b    23.6136
_cell_length_c    23.7163
_cell_angle_alpha 87.1377
_cell_angle_beta  93.8167
_cell_angle_gamma 120.433
_cell_volume      10996

_symmetry_cell_setting          triclinic
_symmetry_space_group_name_Hall 'P 1'
_symmetry_space_group_name_H-M  'P 1'
_symmetry_Int_Tables_number     1

_symmetry_equiv_pos_as_xyz 'x,y,z'

loop_
_atom_site_label
_atom_site_type_symbol
_atom_site_fract_x
_atom_site_fract_y
_atom_site_fract_z
_atom_site_charge
C1       C      0.045310000000     0.189690000000     0.996550000000     0.423973   
C2       C      0.909470000000     0.924720000000     0.029260000000     0.495516   
C3       C      0.077160000000     0.102120000000     0.900500000000     0.462613   
C4       C      0.913940000000     0.021580000000     0.119710000000     0.431885   
C5       C      0.084370000000     0.083480000000     0.188620000000     0.439287   
C6       C      0.173370000000     0.048050000000     0.981590000000     0.468068   
C7       C      0.171850000000     0.205770000000     0.096690000000     0.440691   
C8       C      0.051980000000     0.913970000000     0.042590000000     0.470464   
C9       C      0.091680000000     0.039330000000     0.417330000000     0.450223   
C10      C      0.055000000000     0.154290000000     0.660170000000     0.403568   
C11      C      0.962990000000     0.065590000000     0.532350000000     0.468296   
C12      C      0.210260000000     0.181910000000     0.498320000000     0.450607   
C13      C      0.265900000000     0.105810000000     0.598970000000     0.450389   
C14      C      0.949770000000     0.920940000000     0.608680000000     0.456166   
C15      C      0.085530000000     0.905970000000     0.514570000000     0.462414   
C16      C      0.123650000000     0.058190000000     0.703480000000     0.457019   
C17      C      0.904000000000     0.423400000000     0.988550000000     0.444359   
C18      C      0.050140000000     0.678260000000     0.017900000000     0.46845    
C19      C      0.914020000000     0.569300000000     0.132860000000     0.423149   
C20      C      0.099840000000     0.551500000000     0.925570000000     0.500192   
C21      C      0.194390000000     0.538370000000     0.062320000000     0.522134   
C22      C      0.025270000000     0.509640000000     0.194480000000     0.473712   
C23      C      0.985040000000     0.367120000000     0.083970000000     0.430071   
C24      C      0.164330000000     0.689740000000     0.125640000000     0.434307   
C25      C      0.921150000000     0.358140000000     0.494320000000     0.510371   
C26      C      0.108750000000     0.685300000000     0.537830000000     0.366424   
C27      C      0.947790000000     0.539560000000     0.575740000000     0.525675   
C28      C      0.101600000000     0.509280000000     0.414450000000     0.49074    
C29      C      0.206920000000     0.501550000000     0.528710000000     0.508632   
C30      C      0.059140000000     0.527650000000     0.689870000000     0.459685   
C31      C      0.021280000000     0.343320000000     0.620320000000     0.546989   
C32      C      0.232590000000     0.664160000000     0.546000000000     0.365295   
C33      C      0.398220000000     0.052770000000     0.038820000000     0.43807    
C34      C      0.571070000000     0.943250000000     0.009870000000     0.447316   
C35      C      0.582460000000     0.061040000000     0.937020000000     0.467628   
C36      C      0.390750000000     0.933120000000     0.121930000000     0.459038   
C37      C      0.530020000000     0.013160000000     0.216220000000     0.460574   
C38      C      0.676940000000     0.204800000000     0.019700000000     0.443781   
C39      C      0.545230000000     0.198560000000     0.098680000000     0.459931   
C40      C      0.667620000000     0.016280000000     0.140780000000     0.427462   
C41      C      0.488670000000     0.103480000000     0.532310000000     0.424236   
C42      C      0.645450000000     0.938200000000     0.513380000000     0.42941    
C43      C      0.546370000000     0.017200000000     0.433090000000     0.45403    
C44      C      0.460410000000     0.899140000000     0.609410000000     0.511194   
C45      C      0.580080000000     0.017260000000     0.710530000000     0.52185    
C46      C      0.706450000000     0.171520000000     0.439000000000     0.373931   
C47      C      0.629310000000     0.179690000000     0.613020000000     0.432898   
C48      C      0.747440000000     0.084710000000     0.589410000000     0.465096   
C49      C      0.403590000000     0.441260000000     0.039530000000     0.46722    
C50      C      0.533120000000     0.690310000000     0.009550000000     0.435795   
C51      C      0.404050000000     0.536520000000     0.164000000000     0.422205   
C52      C      0.579350000000     0.566350000000     0.927420000000     0.508127   
C53      C      0.700210000000     0.564210000000     0.039190000000     0.512916   
C54      C      0.582880000000     0.592280000000     0.205390000000     0.473396   
C55      C      0.516820000000     0.410080000000     0.116780000000     0.449783   
C56      C      0.672510000000     0.727090000000     0.094870000000     0.422442   
C57      C      0.453380000000     0.387860000000     0.518000000000     0.51094    
C58      C      0.655270000000     0.728540000000     0.492520000000     0.394653   
C59      C      0.453730000000     0.537800000000     0.584810000000     0.461351   
C60      C      0.586720000000     0.566980000000     0.416470000000     0.528163   
C61      C      0.737620000000     0.572600000000     0.495630000000     0.520493   
C62      C      0.581370000000     0.564960000000     0.693080000000     0.464795   
C63      C      0.604250000000     0.398270000000     0.596000000000     0.499279   
C64      C      0.725560000000     0.692910000000     0.616280000000     0.451626   
C65      C      0.572370000000     0.510750000000     0.785160000000    -0.0070719  
C66      C      0.576900000000     0.620880000000     0.776550000000    -0.022711   
C67      C      0.537680000000     0.505170000000     0.839500000000    -0.00571888 
C68      C      0.607520000000     0.630370000000     0.837670000000     0.0406908  
C69      C      0.543850000000     0.518310000000     0.323200000000    -0.00613346 
C70      C      0.588520000000     0.638550000000     0.335680000000    -0.0232203  
C71      C      0.602710000000     0.535430000000     0.285670000000    -0.00857582 
C72      C      0.644170000000     0.653560000000     0.294270000000     0.0349328  
C73      C      0.701490000000     0.900630000000     0.447960000000    -0.0151573  
C74      C      0.583500000000     0.823350000000     0.484460000000    -0.0226576  
C75      C      0.714640000000     0.841110000000     0.449260000000    -0.0164355  
C76      C      0.588750000000     0.777580000000     0.444340000000     0.0329988  
C77      C      0.685230000000     0.359350000000     0.585490000000    -0.00720487 
C78      C      0.615260000000     0.322670000000     0.668750000000    -0.0199558  
C79      C      0.677160000000     0.291560000000     0.578470000000    -0.0157886  
C80      C      0.598740000000     0.250710000000     0.662470000000     0.0330213  
C81      C      0.525760000000     0.037550000000     0.842910000000    -0.00976799 
C82      C      0.650400000000     0.073270000000     0.856180000000    -0.0231327  
C83      C      0.518770000000     0.992390000000     0.796740000000    -0.00651108 
C84      C      0.643620000000     0.032150000000     0.804980000000     0.0380252  
C85      C      0.503200000000     0.931290000000     0.360230000000    -0.00792885 
C86      C      0.464500000000     0.011380000000     0.357860000000    -0.0218795  
C87      C      0.536620000000     0.956840000000     0.303160000000    -0.0123226  
C88      C      0.501240000000     0.044900000000     0.303870000000     0.0409329  
C89      C      0.599600000000     0.867540000000     0.964350000000    -0.00762722 
C90      C      0.551090000000     0.844870000000     0.058410000000    -0.00827439 
C91      C      0.560830000000     0.792120000000     0.953170000000    -0.0145991  
C92      C      0.506530000000     0.772400000000     0.047210000000     0.0437326  
C93      C      0.544000000000     0.278910000000     0.163890000000    -0.00985161 
C94      C      0.563330000000     0.304940000000     0.061330000000    -0.0267198  
C95      C      0.491110000000     0.302770000000     0.160400000000    -0.0137667  
C96      C      0.505140000000     0.318840000000     0.056540000000     0.053479   
C97      C      0.817590000000     0.223820000000     0.394120000000    -0.0169993  
C98      C      0.757210000000     0.285490000000     0.404530000000    -0.0256284  
C99      C      0.881380000000     0.291450000000     0.407740000000    -0.00428304 
C100     C      0.807540000000     0.328730000000     0.451440000000     0.0418945  
C101     C      0.401160000000     0.778040000000     0.618380000000    -0.00552696 
C102     C      0.352510000000     0.837630000000     0.557420000000    -0.0195296  
C103     C      0.326900000000     0.721360000000     0.615170000000    -0.015232   
C104     C      0.324730000000     0.777610000000     0.520980000000     0.0338308  
C105     C      0.786240000000     0.519480000000     0.554870000000    -0.00221119 
C106     C      0.863670000000     0.635000000000     0.516360000000    -0.0175058  
C107     C      0.844850000000     0.538660000000     0.597190000000    -0.00678719 
C108     C      0.919500000000     0.615580000000     0.520810000000     0.0352879  
C109     C      0.335180000000     0.486840000000     0.613760000000    -0.0102013  
C110     C      0.388400000000     0.594060000000     0.561330000000    -0.019953   
C111     C      0.279110000000     0.458160000000     0.566850000000    -0.00943028 
C112     C      0.334220000000     0.564470000000     0.513320000000     0.0352412  
C113     C      0.052150000000     0.475270000000     0.783610000000    -0.0104559  
C114     C      0.132480000000     0.595300000000     0.769950000000    -0.0245283  
C115     C      0.038040000000     0.487240000000     0.842550000000    -0.0107815  
C116     C      0.121380000000     0.608640000000     0.830520000000     0.037797   
C117     C      0.135680000000     0.571520000000     0.324420000000    -0.0058888  
C118     C      0.086570000000     0.451090000000     0.325660000000    -0.0175909  
C119     C      0.082840000000     0.567560000000     0.280480000000    -0.0110453  
C120     C      0.035940000000     0.443180000000     0.275900000000     0.0321974  
C121     C      0.781200000000     0.376550000000     0.959000000000    -0.00907149 
C122     C      0.838480000000     0.315100000000     0.943460000000    -0.0192829  
C123     C      0.732130000000     0.322860000000     0.000070000000    -0.0118186  
C124     C      0.795140000000     0.261390000000     0.987240000000     0.0310418  
C125     C      0.287010000000     0.757110000000     0.131310000000    -0.012111   
C126     C      0.214710000000     0.800360000000     0.171150000000    -0.0255084  
C127     C      0.347910000000     0.819970000000     0.152620000000    -0.00196962 
C128     C      0.280990000000     0.870990000000     0.172520000000     0.0340805  
C129     C      0.760240000000     0.501490000000     0.063240000000    -0.00941567 
C130     C      0.823490000000     0.623660000000     0.066000000000    -0.0184454  
C131     C      0.788290000000     0.500870000000     0.124780000000    -0.00922033 
C132     C      0.840630000000     0.620560000000     0.129210000000     0.0326171  
C133     C      0.279620000000     0.485310000000     0.183020000000    -0.0149454  
C134     C      0.346370000000     0.600590000000     0.158310000000    -0.0186732  
C135     C      0.228370000000     0.478010000000     0.131900000000    -0.0117343  
C136     C      0.318020000000     0.591550000000     0.097160000000     0.0394486  
C137     C      0.914410000000     0.807410000000     0.641890000000    -0.00758718 
C138     C      0.857300000000     0.861740000000     0.677170000000    -0.021619   
C139     C      0.848730000000     0.749410000000     0.618430000000    -0.0106272  
C140     C      0.786000000000     0.802560000000     0.660360000000     0.0359491  
C141     C      0.378680000000     0.309120000000     0.444100000000    -0.0099473  
C142     C      0.329990000000     0.332010000000     0.528500000000    -0.0203611  
C143     C      0.310560000000     0.241880000000     0.439430000000    -0.013586   
C144     C      0.267570000000     0.304260000000     0.487120000000     0.0316242  
C145     C      0.865070000000     0.154550000000     0.556850000000    -0.0143435  
C146     C      0.828040000000     0.047030000000     0.608310000000    -0.0205856  
C147     C      0.927460000000     0.146940000000     0.544330000000    -0.0130906  
C148     C      0.841920000000     0.026000000000     0.553600000000     0.0350884  
C149     C      0.409720000000     0.075440000000     0.608500000000    -0.00296688 
C150     C      0.443170000000     0.177070000000     0.547040000000    -0.0241997  
C151     C      0.336080000000     0.056050000000     0.598370000000    -0.00702221 
C152     C      0.387820000000     0.180200000000     0.580090000000     0.0352096  
C153     C      0.086510000000     0.818820000000     0.574660000000    -0.00738823 
C154     C      0.050850000000     0.797940000000     0.472010000000    -0.0235377  
C155     C      0.135160000000     0.793550000000     0.569260000000    -0.0147857  
C156     C      0.097250000000     0.767540000000     0.468600000000     0.0304131  
C157     C      0.984520000000     0.193390000000     0.703040000000    -0.0145173  
C158     C      0.110360000000     0.264970000000     0.699160000000    -0.0232052  
C159     C      0.985680000000     0.260030000000     0.698860000000    -0.00283714 
C160     C      0.105600000000     0.317490000000     0.662430000000     0.0391948  
C161     C      0.031260000000     0.043930000000     0.809430000000    -0.0163493  
C162     C      0.149670000000     0.141440000000     0.817710000000    -0.0200875  
C163     C      0.061660000000     0.003370000000     0.788900000000    -0.00898637 
C164     C      0.177370000000     0.097830000000     0.800290000000     0.0349632  
C165     C      0.131540000000     0.036770000000     0.323270000000    -0.0111014  
C166     C      0.050380000000     0.078550000000     0.334140000000    -0.0251013  
C167     C      0.157920000000     0.081920000000     0.270390000000    -0.0136726  
C168     C      0.084050000000     0.127550000000     0.285120000000     0.0368526  
C169     C      0.726310000000     0.818920000000     0.023700000000    -0.0115301  
C170     C      0.781460000000     0.754530000000     0.063100000000    -0.0356552  
C171     C      0.791370000000     0.851720000000     0.989930000000    -0.00685499 
C172     C      0.844420000000     0.818590000000     0.073770000000     0.0440196  
C173     C      0.339080000000     0.321340000000     0.036010000000    -0.00479719 
C174     C      0.306890000000     0.381010000000     0.099500000000    -0.0293938  
C175     C      0.265740000000     0.264950000000     0.033810000000    -0.0204145  
C176     C      0.232690000000     0.326290000000     0.095670000000     0.040909   
C177     C      0.776270000000     0.034340000000     0.193770000000    -0.0176562  
C178     C      0.731900000000     0.969720000000     0.105640000000    -0.0329296  
C179     C      0.831720000000     0.012360000000     0.191190000000    -0.015808   
C180     C      0.804510000000     0.016320000000     0.087710000000     0.0362527  
C181     C      0.229400000000     0.985910000000     0.960090000000    -0.00819429 
C182     C      0.290830000000     0.109340000000     0.954070000000    -0.0109726  
C183     C      0.303020000000     0.998300000000     0.968740000000    -0.0113336  
C184     C      0.347670000000     0.116390000000     0.996700000000     0.0303278  
C185     C      0.115470000000     0.798750000000     0.030750000000    -0.00663046 
C186     C      0.987900000000     0.738100000000     0.010460000000    -0.0225736  
C187     C      0.101350000000     0.842530000000     0.067420000000    -0.0113435  
C188     C      0.001180000000     0.807530000000     0.996520000000     0.0376827  
C189     C      0.937770000000     0.256240000000     0.044870000000    -0.0102199  
C190     C      0.041510000000     0.346700000000     0.006460000000    -0.0262954  
C191     C      0.967930000000     0.211330000000     0.045140000000    -0.0109849  
C192     C      0.076200000000     0.305830000000     0.007150000000     0.0395177  
Co1      Co     0.025740000000     0.117410000000     0.082320000000     1.0595     
Co2      Co     0.023020000000     0.999440000000     0.971820000000     1.10693    
Co3      Co     0.144400000000     0.139860000000     0.011650000000     1.08725    
Co4      Co     0.023010000000     0.989090000000     0.112230000000     1.05892    
Co5      Co     0.170420000000     0.038820000000     0.522950000000     1.08413    
Co6      Co     0.047430000000     0.062750000000     0.614260000000     1.03344    
Co7      Co     0.011250000000     0.975500000000     0.506790000000     1.07179    
Co8      Co     0.166700000000     0.142400000000     0.604040000000     0.912478   
Co9      Co     0.053930000000     0.462910000000     0.026900000000     1.17427    
Co10     Co     0.018470000000     0.591680000000     0.102870000000     1.08279    
Co11     Co     0.942620000000     0.459360000000     0.095060000000     0.963822   
Co12     Co     0.142030000000     0.622750000000     0.028470000000     1.10526    
Co13     Co     0.069380000000     0.415610000000     0.514070000000     1.26901    
Co14     Co     0.098210000000     0.588240000000     0.576820000000     0.831808   
Co15     Co     0.963810000000     0.429510000000     0.602730000000     1.14957    
Co16     Co     0.133850000000     0.580320000000     0.514260000000     0.790978   
Co17     Co     0.490810000000     0.075400000000     0.138130000000     1.04707    
Co18     Co     0.651260000000     0.081240000000     0.048160000000     1.024      
Co19     Co     0.526770000000     0.103540000000     0.008220000000     1.06661    
Co20     Co     0.518060000000     0.959150000000     0.101500000000     1.05815    
Co21     Co     0.512620000000     0.036100000000     0.608880000000     1.22595    
Co22     Co     0.652180000000     0.063490000000     0.507140000000     0.78607    
Co23     Co     0.613440000000     0.114700000000     0.515410000000     0.779481   
Co24     Co     0.609380000000     0.969770000000     0.614580000000     1.16539    
Co25     Co     0.551910000000     0.486640000000     0.024950000000     1.15417    
Co26     Co     0.538370000000     0.643110000000     0.110750000000     0.969732   
Co27     Co     0.483140000000     0.516780000000     0.123050000000     1.05368    
Co28     Co     0.639000000000     0.643130000000     0.030040000000     1.13412    
Co29     Co     0.595290000000     0.471790000000     0.493500000000     1.27782    
Co30     Co     0.583950000000     0.627840000000     0.582470000000     0.893898   
Co31     Co     0.531940000000     0.468820000000     0.617730000000     1.09538    
Co32     Co     0.662260000000     0.631530000000     0.521670000000     0.971023   
H1       H      0.484390000000     0.493330000000     0.829610000000     0.0404597  
H2       H      0.541170000000     0.463640000000     0.762490000000     0.0306025  
H3       H      0.598460000000     0.666730000000     0.857700000000     0.0264695  
H4       H      0.523230000000     0.609170000000     0.777120000000     0.0435288  
H5       H      0.536460000000     0.463810000000     0.865120000000     0.0392606  
H6       H      0.623820000000     0.517640000000     0.795350000000     0.0472453  
H7       H      0.605150000000     0.667370000000     0.751890000000     0.0450486  
H8       H      0.729810000000     0.712690000000     0.875790000000     0.032508   
H9       H      0.647770000000     0.542160000000     0.312250000000     0.0420143  
H10      H      0.527210000000     0.470210000000     0.345150000000     0.0454497  
H11      H      0.688520000000     0.657290000000     0.320050000000     0.0370344  
H12      H      0.608170000000     0.677960000000     0.367380000000     0.0518239  
H13      H      0.589550000000     0.494550000000     0.256750000000     0.0500814  
H14      H      0.499080000000     0.512480000000     0.296750000000     0.0486572  
H15      H      0.544220000000     0.637570000000     0.312150000000     0.0427317  
H16      H      0.625770000000     0.748550000000     0.253510000000     0.0359829  
H17      H      0.734150000000     0.839390000000     0.408070000000     0.0391834  
H18      H      0.687320000000     0.908850000000     0.403830000000     0.0398517  
H19      H      0.592230000000     0.798500000000     0.400730000000     0.0261042  
H20      H      0.538590000000     0.828120000000     0.470580000000     0.0462157  
H21      H      0.754880000000     0.849240000000     0.481980000000     0.04662    
H22      H      0.749420000000     0.945790000000     0.459390000000     0.0414218  
H23      H      0.575950000000     0.801620000000     0.527960000000     0.0490803  
H24      H      0.489680000000     0.684810000000     0.384530000000     0.0276807  
H25      H      0.648120000000     0.272220000000     0.537580000000     0.058414   
H26      H      0.690490000000     0.381660000000     0.542500000000     0.0408956  
H27      H      0.545460000000     0.222300000000     0.645610000000     0.0383226  
H28      H      0.571610000000     0.321800000000     0.687870000000     0.0412736  
H29      H      0.728730000000     0.298650000000     0.574670000000     0.0488923  
H30      H      0.733320000000     0.390180000000     0.610490000000     0.0337489  
H31      H      0.660680000000     0.349730000000     0.697910000000     0.0436815  
H32      H      0.544930000000     0.157370000000     0.737740000000     0.0373563  
H33      H      0.505350000000     0.943390000000     0.815510000000     0.037886   
H34      H      0.477260000000     0.013020000000     0.865180000000     0.0451914  
H35      H      0.637050000000     0.984220000000     0.820810000000     0.0252473  
H36      H      0.686530000000     0.069370000000     0.887790000000     0.0457622  
H37      H      0.475250000000     0.985030000000     0.767710000000     0.0392449  
H38      H      0.532710000000     0.084460000000     0.823970000000     0.0356969  
H39      H      0.672400000000     0.125890000000     0.843330000000     0.048097   
H40      H      0.741140000000     0.031780000000     0.754000000000     0.0378434  
H41      H      0.592770000000     0.984420000000     0.311170000000     0.0430466  
H42      H      0.530440000000     0.910540000000     0.386340000000     0.0437827  
H43      H      0.549970000000     0.090100000000     0.315420000000     0.0417743  
H44      H      0.459200000000     0.046650000000     0.383470000000     0.0539007  
H45      H      0.523620000000     0.913650000000     0.277230000000     0.0386104  
H46      H      0.450080000000     0.890390000000     0.352600000000     0.035153   
H47      H      0.412000000000     0.970700000000     0.347140000000     0.0433761  
H48      H      0.480700000000     0.135710000000     0.256930000000     0.0331885  
H49      H      0.515770000000     0.780360000000     0.924440000000     0.0372166  
H50      H      0.601670000000     0.894190000000     0.923830000000     0.0290318  
H51      H      0.456510000000     0.763870000000     0.030050000000     0.0316303  
H52      H      0.524010000000     0.858600000000     0.087500000000     0.0118372  
H53      H      0.593930000000     0.780290000000     0.930010000000     0.0344487  
H54      H      0.652700000000     0.884100000000     0.979800000000     0.0334353  
H55      H      0.600060000000     0.854800000000     0.080060000000     0.0459168  
H56      H      0.552060000000     0.773620000000     0.153800000000     0.0391865  
H57      H      0.439000000000     0.259150000000     0.157350000000     0.0408503  
H58      H      0.527650000000     0.238110000000     0.195610000000     0.0374265  
H59      H      0.456970000000     0.271520000000     0.049780000000     0.029648   
H60      H      0.567800000000     0.286100000000     0.020710000000     0.0471419  
H61      H      0.495650000000     0.328210000000     0.200100000000     0.0351027  
H62      H      0.594200000000     0.319800000000     0.179190000000     0.040499   
H63      H      0.612140000000     0.351120000000     0.070090000000     0.0453455  
H64      H      0.463970000000     0.329170000000     0.953760000000     0.0463069  
H65      H      0.924770000000     0.283230000000     0.418240000000     0.0371603  
H66      H      0.823650000000     0.185300000000     0.418100000000     0.0493446  
H67      H      0.782440000000     0.311280000000     0.492240000000     0.0411711  
H68      H      0.706370000000     0.280280000000     0.408370000000     0.0539998  
H69      H      0.894270000000     0.323810000000     0.369370000000     0.0362515  
H70      H      0.814900000000     0.213900000000     0.348430000000     0.0395226  
H71      H      0.774590000000     0.308450000000     0.362180000000     0.0452594  
H72      H      0.846080000000     0.442590000000     0.489200000000     0.0496782  
H73      H      0.325880000000     0.674530000000     0.625640000000     0.0439997  
H74      H      0.432230000000     0.766730000000     0.591880000000     0.0393414  
H75      H      0.367390000000     0.779250000000     0.499410000000     0.034189   
H76      H      0.373510000000     0.881780000000     0.528780000000     0.0551599  
H77      H      0.298390000000     0.728820000000     0.647490000000     0.0510335  
H78      H      0.421340000000     0.782830000000     0.662970000000     0.0349771  
H79      H      0.311100000000     0.836160000000     0.580900000000     0.0482417  
H80      H      0.275500000000     0.762330000000     0.416840000000     0.040054   
H81      H      0.849030000000     0.576740000000     0.625620000000     0.0403285  
H82      H      0.740350000000     0.500520000000     0.580070000000     0.0469588  
H83      H      0.969520000000     0.660130000000     0.529520000000     0.0383463  
H84      H      0.871650000000     0.666570000000     0.552310000000     0.0430907  
H85      H      0.835640000000     0.495290000000     0.624190000000     0.0383622  
H86      H      0.781270000000     0.480270000000     0.527800000000     0.0429861  
H87      H      0.867940000000     0.664110000000     0.476870000000     0.0444262  
H88      H      0.962220000000     0.558490000000     0.455690000000     0.0500092  
H89      H      0.293320000000     0.435440000000     0.535130000000     0.035531   
H90      H      0.343920000000     0.447440000000     0.632460000000     0.037489   
H91      H      0.352800000000     0.543130000000     0.483150000000     0.0332101  
H92      H      0.436870000000     0.634730000000     0.545310000000     0.0469112  
H93      H      0.232150000000     0.419300000000     0.586210000000     0.0467185  
H94      H      0.318710000000     0.505650000000     0.647810000000     0.0399598  
H95      H      0.371740000000     0.615910000000     0.592480000000     0.042542   
H96      H      0.294630000000     0.604060000000     0.422340000000     0.0391924  
H97      H      0.990520000000     0.489670000000     0.840070000000     0.0423015  
H98      H      0.004720000000     0.432600000000     0.766090000000     0.0443761  
H99      H      0.084380000000     0.626270000000     0.827600000000     0.0336287  
H100     H      0.140630000000     0.638280000000     0.742760000000     0.0544444  
H101     H      0.028300000000     0.443320000000     0.868990000000     0.0436385  
H102     H      0.092170000000     0.461430000000     0.787020000000     0.0412853  
H103     H      0.179260000000     0.591730000000     0.769730000000     0.0489168  
H104     H      0.192550000000     0.721950000000     0.878990000000     0.039911   
H105     H      0.041470000000     0.568720000000     0.301760000000     0.0466686  
H106     H      0.153050000000     0.615460000000     0.350710000000     0.0472895  
H107     H      0.984490000000     0.421680000000     0.292830000000     0.0330214  
H108     H      0.062610000000     0.405870000000     0.352740000000     0.0416263  
H109     H      0.108860000000     0.612860000000     0.253730000000     0.051985   
H110     H      0.180930000000     0.578280000000     0.303240000000     0.0376818  
H111     H      0.133630000000     0.455490000000     0.309930000000     0.0400381  
H112     H      0.969150000000     0.334560000000     0.219850000000     0.0392258  
H113     H      0.748440000000     0.340890000000     0.043990000000     0.0386187  
H114     H      0.788800000000     0.425140000000     0.969510000000     0.0412525  
H115     H      0.824560000000     0.271850000000     0.028250000000     0.0434649  
H116     H      0.888480000000     0.318470000000     0.940170000000     0.0439811  
H117     H      0.680450000000     0.315730000000     0.990910000000     0.0347275  
H118     H      0.756990000000     0.365720000000     0.915600000000     0.0380987  
H119     H      0.812420000000     0.301770000000     0.900770000000     0.0429518  
H120     H      0.785010000000     0.147270000000     0.006550000000     0.0165471  
H121     H      0.356500000000     0.815440000000     0.198990000000     0.0324477  
H122     H      0.291480000000     0.715770000000     0.151330000000     0.0422638  
H123     H      0.299430000000     0.881840000000     0.217490000000     0.0288705  
H124     H      0.201000000000     0.783820000000     0.215500000000     0.040112   
H125     H      0.393730000000     0.826510000000     0.132480000000     0.0235853  
H126     H      0.290060000000     0.757140000000     0.084690000000     0.0407368  
H127     H      0.171010000000     0.803300000000     0.151390000000     0.0469575  
H128     H      0.292000000000     0.984820000000     0.184990000000     0.0421867  
H129     H      0.749010000000     0.493240000000     0.154410000000     0.0419889  
H130     H      0.708890000000     0.457560000000     0.057020000000     0.0409627  
H131     H      0.795560000000     0.610470000000     0.152730000000     0.0404517  
H132     H      0.822070000000     0.668440000000     0.053900000000     0.037116   
H133     H      0.795850000000     0.458030000000     0.131550000000     0.0399647  
H134     H      0.794220000000     0.498680000000     0.033590000000     0.0480448  
H135     H      0.863950000000     0.625380000000     0.041260000000     0.0475693  
H136     H      0.881260000000     0.732240000000     0.176310000000     0.0286051  
H137     H      0.220900000000     0.439490000000     0.103040000000     0.0383227  
H138     H      0.281870000000     0.440300000000     0.192240000000     0.0423523  
H139     H      0.346060000000     0.575620000000     0.071600000000     0.0519561  
H140     H      0.396380000000     0.644130000000     0.165930000000     0.0461161  
H141     H      0.178190000000     0.459300000000     0.150610000000     0.0539052  
H142     H      0.260660000000     0.493890000000     0.221880000000     0.0367305  
H143     H      0.312550000000     0.607290000000     0.185690000000     0.0425544  
H144     H      0.339700000000     0.668430000000     0.009870000000     0.0429282  
H145     H      0.848780000000     0.754350000000     0.571490000000     0.0539321  
H146     H      0.957680000000     0.814340000000     0.617650000000     0.043895   
H147     H      0.762730000000     0.820650000000     0.627050000000     0.0331229  
H148     H      0.854910000000     0.907660000000     0.675470000000     0.0465821  
H149     H      0.849400000000     0.703750000000     0.631090000000     0.0418969  
H150     H      0.924560000000     0.795970000000     0.686310000000     0.0371523  
H151     H      0.872690000000     0.855780000000     0.721610000000     0.0415839  
H152     H      0.679390000000     0.787120000000     0.707360000000     0.0335317  
H153     H      0.293630000000     0.231700000000     0.394200000000     0.0352479  
H154     H      0.378830000000     0.342590000000     0.409330000000     0.0402555  
H155     H      0.280770000000     0.336990000000     0.448920000000     0.0301693  
H156     H      0.340820000000     0.379090000000     0.545580000000     0.0399535  
H157     H      0.322430000000     0.203560000000     0.455340000000     0.0433085  
H158     H      0.421360000000     0.300460000000     0.437690000000     0.0358174  
H159     H      0.320570000000     0.297340000000     0.564890000000     0.0489832  
H160     H      0.179470000000     0.344050000000     0.477130000000     0.0274195  
H161     H      0.950560000000     0.175570000000     0.505220000000     0.0387778  
H162     H      0.840580000000     0.156430000000     0.515250000000     0.0521411  
H163     H      0.805870000000     0.024840000000     0.519550000000     0.0456292  
H164     H      0.786610000000     0.005240000000     0.631340000000     0.0438162  
H165     H      0.966260000000     0.170040000000     0.579300000000     0.0525187  
H166     H      0.883380000000     0.202150000000     0.577720000000     0.0410277  
H167     H      0.872970000000     0.064620000000     0.638080000000     0.0531693  
H168     H      0.757360000000     0.903510000000     0.571110000000     0.0259544  
H169     H      0.315280000000     0.027020000000     0.559090000000     0.0351091  
H170     H      0.411880000000     0.029640000000     0.613270000000    -0.00960036 
H171     H      0.370130000000     0.208960000000     0.553000000000     0.0351885  
H172     H      0.428770000000     0.175660000000     0.501170000000     0.0384463  
H173     H      0.307520000000     0.024490000000     0.634690000000     0.040596   
H174     H      0.430250000000     0.101700000000     0.649100000000     0.0286318  
H175     H      0.493490000000     0.222400000000     0.553550000000     0.0474194  
H176     H      0.441540000000     0.289050000000     0.634560000000     0.0365359  
H177     H      0.185860000000     0.834910000000     0.557740000000     0.0422616  
H178     H      0.107430000000     0.857000000000     0.607670000000     0.0485789  
H179     H      0.147350000000     0.808130000000     0.455090000000     0.0305727  
H180     H      0.051770000000     0.824090000000     0.431410000000     0.0430709  
H181     H      0.142050000000     0.775340000000     0.611850000000     0.0527532  
H182     H      0.037240000000     0.777880000000     0.589300000000     0.0380823  
H183     H      0.997450000000     0.758730000000     0.478210000000     0.0438321  
H184     H      0.119540000000     0.707600000000     0.391270000000     0.0450274  
H185     H      0.933540000000     0.250390000000     0.686640000000     0.0375515  
H186     H      0.942640000000     0.158790000000     0.674650000000     0.0436613  
H187     H      0.122370000000     0.316300000000     0.619740000000     0.0456343  
H188     H      0.158390000000     0.265670000000     0.691850000000     0.0408445  
H189     H      0.000280000000     0.283330000000     0.740980000000     0.0358581  
H190     H      0.973950000000     0.172910000000     0.746810000000     0.0400185  
H191     H      0.112380000000     0.275100000000     0.744840000000     0.0398101  
H192     H      0.224690000000     0.404120000000     0.703760000000     0.0277201  
H193     H      0.071960000000     0.978400000000     0.826000000000     0.034403   
H194     H      0.985270000000     0.010960000000     0.833270000000     0.0356548  
H195     H      0.183500000000     0.072630000000     0.839260000000     0.0373403  
H196     H      0.187290000000     0.180420000000     0.846580000000     0.0448379  
H197     H      0.023890000000     0.963620000000     0.760750000000     0.0470759  
H198     H      0.014540000000     0.063630000000     0.772330000000     0.0558096  
H199     H      0.142090000000     0.166910000000     0.779640000000     0.0447085  
H200     H      0.283590000000     0.103680000000     0.760430000000     0.0392314  
H201     H      0.204600000000     0.128470000000     0.283050000000     0.0396576  
H202     H      0.175720000000     0.036870000000     0.346170000000     0.0405124  
H203     H      0.129490000000     0.171760000000     0.303260000000     0.0310714  
H204     H      0.037040000000     0.103260000000     0.365530000000     0.051128   
H205     H      0.173930000000     0.058310000000     0.240290000000     0.0500457  
H206     H      0.095520000000     0.985770000000     0.309340000000     0.0381361  
H207     H      0.002600000000     0.034920000000     0.318300000000     0.0468202  
H208     H      0.064900000000     0.217350000000     0.233990000000     0.0366595  
H209     H      0.788030000000     0.816910000000     0.958250000000     0.0290433  
H210     H      0.682520000000     0.798640000000     0.993120000000     0.039444   
H211     H      0.888270000000     0.810380000000     0.072760000000     0.0243323  
H212     H      0.782930000000     0.734750000000     0.021980000000     0.0301772  
H213     H      0.796760000000     0.894930000000     0.965340000000     0.0398817  
H214     H      0.724710000000     0.856050000000     0.049280000000     0.0428256  
H215     H      0.779330000000     0.720210000000     0.097970000000     0.0535094  
H216     H      0.900630000000     0.857330000000     0.174400000000     0.0257457  
H217     H      0.239980000000     0.269540000000     0.993840000000     0.0259774  
H218     H      0.359920000000     0.325460000000     0.993930000000     0.0369857  
H219     H      0.208240000000     0.340470000000     0.060790000000     0.0308238  
H220     H      0.308010000000     0.427820000000     0.102160000000     0.0542751  
H221     H      0.267780000000     0.219060000000     0.032000000000     0.0193145  
H222     H      0.368800000000     0.309110000000     0.068230000000     0.0498842  
H223     H      0.331870000000     0.372910000000     0.138430000000     0.0661346  
H224     H      0.133640000000     0.319840000000     0.150520000000     0.0384916  
H225     H      0.877240000000     0.045790000000     0.217880000000     0.0367986  
H226     H      0.801930000000     0.088470000000     0.186970000000     0.0423609  
H227     H      0.814070000000     0.067530000000     0.084890000000     0.0255555  
H228     H      0.695680000000     0.957200000000     0.069280000000     0.0542461  
H229     H      0.810750000000     0.961840000000     0.209330000000     0.0418792  
H230     H      0.755630000000     0.022890000000     0.236600000000     0.0354601  
H231     H      0.726270000000     0.922330000000     0.122070000000     0.0493926  
H232     H      0.828780000000     0.052050000000     0.982610000000     0.0395575  
H233     H      0.300200000000     0.952030000000     0.985230000000     0.0439107  
H234     H      0.198100000000     0.950790000000     0.993350000000     0.0376562  
H235     H      0.342720000000     0.135190000000     0.037130000000     0.0452775  
H236     H      0.283720000000     0.152470000000     0.956520000000     0.0315716  
H237     H      0.327010000000     0.010190000000     0.927200000000     0.0392575  
H238     H      0.207110000000     0.963320000000     0.918330000000     0.0353544  
H239     H      0.304920000000     0.109460000000     0.909960000000     0.035277   
H240     H      0.443840000000     0.146660000000     0.927820000000     0.0204978  
H241     H      0.081490000000     0.817330000000     0.108450000000     0.0459297  
H242     H      0.153360000000     0.789280000000     0.054210000000     0.0468352  
H243     H      0.951210000000     0.804880000000     0.997840000000     0.0282942  
H244     H      0.963070000000     0.722370000000     0.051180000000     0.04998    
H245     H      0.149400000000     0.889160000000     0.075460000000     0.0409132  
H246     H      0.139220000000     0.825660000000     0.991270000000     0.040267   
H247     H      0.953160000000     0.703680000000     0.977200000000     0.0420491  
H248     H      0.999130000000     0.863750000000     0.899780000000     0.0296382  
H249     H      0.984740000000     0.206320000000     0.089310000000     0.014673   
H250     H      0.901470000000     0.240370000000     0.079310000000     0.0341626  
H251     H      0.107720000000     0.317280000000     0.046720000000     0.0343851  
H252     H      0.082450000000     0.397300000000     0.011080000000    -0.0161908  
H253     H      0.925400000000     0.162280000000     0.031960000000     0.0381724  
H254     H      0.910610000000     0.251110000000     0.003630000000     0.0371277  
H255     H      0.015220000000     0.343650000000     0.964490000000     0.0358767  
H256     H      0.193280000000     0.379370000000     0.962520000000     0.0363382  
N1       N      0.575100000000     0.567590000000     0.869890000000    -0.19086    
N2       N      0.578440000000     0.566560000000     0.750040000000    -0.177376   
N3       N      0.618310000000     0.597290000000     0.255650000000    -0.179187   
N4       N      0.566590000000     0.573230000000     0.362210000000    -0.187463   
N5       N      0.652600000000     0.777430000000     0.459900000000    -0.164228   
N6       N      0.645880000000     0.889050000000     0.484570000000    -0.168025   
N7       N      0.642540000000     0.242340000000     0.623780000000    -0.16836    
N8       N      0.628890000000     0.357230000000     0.613930000000    -0.182114   
N9       N      0.583270000000     0.019560000000     0.768180000000    -0.192949   
N10      N      0.584600000000     0.051330000000     0.881150000000    -0.178327   
N11      N      0.516330000000     0.000900000000     0.272300000000    -0.179467   
N12      N      0.502240000000     0.984330000000     0.388960000000    -0.173192   
N13      N      0.536520000000     0.750610000000     0.005160000000    -0.172792   
N14      N      0.565780000000     0.883400000000     0.006190000000    -0.178514   
N15      N      0.500370000000     0.345950000000     0.110460000000    -0.182837   
N16      N      0.551460000000     0.258330000000     0.108080000000    -0.174725   
N17      N      0.870170000000     0.324440000000     0.454150000000    -0.188564   
N18      N      0.754820000000     0.222200000000     0.408170000000    -0.154316   
N19      N      0.293780000000     0.718290000000     0.558720000000    -0.158842   
N20      N      0.405100000000     0.839680000000     0.597980000000    -0.186843   
N21      N      0.906550000000     0.565330000000     0.565990000000    -0.194636   
N22      N      0.795660000000     0.575850000000     0.518470000000    -0.183096   
N23      N      0.270850000000     0.510250000000     0.537060000000    -0.189659   
N24      N      0.396320000000     0.541060000000     0.589520000000    -0.178194   
N25      N      0.093920000000     0.548730000000     0.867370000000    -0.185153   
N26      N      0.075040000000     0.534090000000     0.747050000000    -0.172471   
N27      N      0.053080000000     0.506910000000     0.246900000000    -0.178307   
N28      N      0.106060000000     0.510240000000     0.357380000000    -0.18219    
N29      N      0.730420000000     0.259680000000     0.996170000000    -0.173974   
N30      N      0.846360000000     0.377800000000     0.959180000000    -0.171996   
N31      N      0.336710000000     0.875180000000     0.140870000000    -0.179914   
N32      N      0.220320000000     0.748510000000     0.143120000000    -0.170306   
N33      N      0.851620000000     0.564220000000     0.137510000000    -0.169847   
N34      N      0.759200000000     0.562940000000     0.051430000000    -0.183951   
N35      N      0.245780000000     0.538680000000     0.096810000000    -0.188628   
N36      N      0.347760000000     0.540840000000     0.174680000000    -0.167254   
N37      N      0.785920000000     0.744600000000     0.637590000000    -0.174492   
N38      N      0.908450000000     0.866320000000     0.640450000000    -0.171182   
N39      N      0.254990000000     0.239300000000     0.470880000000    -0.176327   
N40      N      0.389340000000     0.341600000000     0.498890000000    -0.18584    
N41      N      0.910900000000     0.077700000000     0.538000000000    -0.180763   
N42      N      0.814230000000     0.100240000000     0.592210000000    -0.174597   
N43      N      0.328930000000     0.114460000000     0.592910000000    -0.187048   
N44      N      0.448870000000     0.118600000000     0.561700000000    -0.179022   
N45      N      0.108420000000     0.743000000000     0.525220000000    -0.158221   
N46      N      0.074760000000     0.843490000000     0.519520000000    -0.176993   
N47      N      0.035140000000     0.305290000000     0.657840000000    -0.195922   
N48      N      0.049550000000     0.201330000000     0.686940000000    -0.162773   
N49      N      0.125990000000     0.047900000000     0.761060000000    -0.178538   
N50      N      0.083310000000     0.099390000000     0.843670000000    -0.177764   
N51      N      0.107010000000     0.097690000000     0.244530000000    -0.174235   
N52      N      0.096230000000     0.056750000000     0.360780000000    -0.172847   
N53      N      0.849450000000     0.867610000000     0.029760000000    -0.190778   
N54      N      0.724420000000     0.766350000000     0.061450000000    -0.192318   
N55      N      0.227530000000     0.264070000000     0.082220000000    -0.182948   
N56      N      0.344510000000     0.383700000000     0.050490000000    -0.173518   
N57      N      0.851680000000     0.013130000000     0.132470000000    -0.178455   
N58      N      0.719090000000     0.001800000000     0.150650000000    -0.168698   
N59      N      0.345480000000     0.053060000000     0.007760000000    -0.175447   
N60      N      0.228100000000     0.047070000000     0.963630000000    -0.177127   
N61      N      0.051180000000     0.855990000000     0.037970000000    -0.185288   
N62      N      0.051530000000     0.736920000000     0.016240000000    -0.173697   
N63      N      0.026680000000     0.234930000000     0.008060000000    -0.179819   
N64      N      0.991510000000     0.324450000000     0.050760000000    -0.182736   
O1       O      0.005330000000     0.131790000000     0.008840000000    -0.435123   
O2       O      0.928500000000     0.964810000000     0.987200000000    -0.422587   
O3       O      0.130020000000     0.129780000000     0.932190000000    -0.461716   
O4       O      0.949510000000     0.003280000000     0.150420000000    -0.384979   
O5       O      0.021830000000     0.065210000000     0.923800000000    -0.444733   
O6       O      0.939090000000     0.049620000000     0.075020000000    -0.455266   
O7       O      0.949780000000     0.933320000000     0.071080000000    -0.497255   
O8       O      0.107460000000     0.204560000000     0.997290000000    -0.392008   
O9       O      0.048440000000     0.105190000000     0.163260000000    -0.418425   
O10      O      0.116350000000     0.020160000000     0.953510000000    -0.42842    
O11      O      0.170240000000     0.154560000000     0.086270000000    -0.453858   
O12      O      0.078040000000     0.952010000000     0.084980000000    -0.407388   
O13      O      0.020590000000     0.927150000000     0.004080000000    -0.49002    
O14      O      0.114180000000     0.200940000000     0.094650000000    -0.420056   
O15      O      0.095980000000     0.045360000000     0.161910000000    -0.429297   
O16      O      0.184290000000     0.089590000000     0.017880000000    -0.454223   
O17      O      0.056060000000     0.060320000000     0.044660000000    -0.524031   
O18      O      0.133840000000     0.025530000000     0.443000000000    -0.42767    
O19      O      0.011410000000     0.093760000000     0.664900000000    -0.409667   
O20      O      0.952080000000     0.010140000000     0.518440000000    -0.436204   
O21      O      0.171260000000     0.182290000000     0.533650000000    -0.420137   
O22      O      0.020380000000     0.103720000000     0.553980000000    -0.426244   
O23      O      0.216870000000     0.131450000000     0.496860000000    -0.432289   
O24      O      0.106400000000     0.171670000000     0.630340000000    -0.442366   
O25      O      0.043030000000     0.033570000000     0.444120000000    -0.450153   
O26      O      0.214420000000     0.050310000000     0.594390000000    -0.450367   
O27      O      0.960280000000     0.977750000000     0.619410000000    -0.3866     
O28      O      0.047840000000     0.920140000000     0.483020000000    -0.426728   
O29      O      0.168820000000     0.109290000000     0.679700000000    -0.431259   
O30      O      0.070610000000     0.022530000000     0.674370000000    -0.437336   
O31      O      0.131660000000     0.950350000000     0.544190000000    -0.452746   
O32      O      0.255520000000     0.152860000000     0.595950000000    -0.417047   
O33      O      0.976980000000     0.914780000000     0.566920000000    -0.451213   
O34      O      0.095360000000     0.043880000000     0.560500000000    -0.541727   
O35      O      0.959480000000     0.422110000000     0.988630000000    -0.427896   
O36      O      0.998280000000     0.626310000000     0.034210000000    -0.435152   
O37      O      0.916730000000     0.520060000000     0.117220000000    -0.504884   
O38      O      0.118450000000     0.604060000000     0.950750000000    -0.464383   
O39      O      0.970290000000     0.622690000000     0.139740000000    -0.39807    
O40      O      0.081950000000     0.499610000000     0.954500000000    -0.488176   
O41      O      0.105650000000     0.678940000000     0.018910000000    -0.467997   
O42      O      0.898280000000     0.456570000000     0.025400000000    -0.440094   
O43      O      0.136940000000     0.489610000000     0.062430000000    -0.491082   
O44      O      0.041790000000     0.564650000000     0.171670000000    -0.452709   
O45      O      0.931410000000     0.368990000000     0.081480000000    -0.389928   
O46      O      0.173670000000     0.648010000000     0.103160000000    -0.453057   
O47      O      0.103690000000     0.678910000000     0.123440000000    -0.378455   
O48      O      0.033500000000     0.422210000000     0.093260000000    -0.487437   
O49      O      0.201160000000     0.586720000000     0.033030000000    -0.465148   
O50      O      0.982280000000     0.458560000000     0.168530000000    -0.423322   
O51      O      0.048370000000     0.538360000000     0.059500000000    -0.532225   
O52      O      0.980400000000     0.371030000000     0.485770000000    -0.513247   
O53      O      0.126340000000     0.674970000000     0.587560000000    -0.36465    
O54      O      0.923950000000     0.480180000000     0.587060000000    -0.497097   
O55      O      0.111310000000     0.559730000000     0.438720000000    -0.406879   
O56      O      0.009930000000     0.574950000000     0.572950000000    -0.437571   
O57      O      0.089720000000     0.458410000000     0.443030000000    -0.491781   
O58      O      0.088600000000     0.637720000000     0.502820000000    -0.374598   
O59      O      0.910010000000     0.378970000000     0.538290000000    -0.463543   
O60      O      0.156710000000     0.447400000000     0.538910000000    -0.51551    
O61      O      0.095980000000     0.573630000000     0.656100000000    -0.389633   
O62      O      0.982520000000     0.363600000000     0.631770000000    -0.488851   
O63      O      0.206110000000     0.655840000000     0.495880000000    -0.369294   
O64      O      0.198480000000     0.620670000000     0.584460000000    -0.399047   
O65      O      0.053900000000     0.364520000000     0.576810000000    -0.531504   
O66      O      0.197290000000     0.547710000000     0.514250000000    -0.402325   
O67      O      0.009170000000     0.474670000000     0.670860000000    -0.450568   
O68      O      0.057510000000     0.490080000000     0.552900000000    -0.492574   
O69      O      0.422430000000     0.083560000000     0.084670000000    -0.411554   
O70      O      0.627470000000     0.991800000000     0.026260000000    -0.425381   
O71      O      0.527440000000     0.045960000000     0.958050000000    -0.448676   
O72      O      0.426210000000     0.932020000000     0.084210000000    -0.436019   
O73      O      0.636110000000     0.088510000000     0.967960000000    -0.444247   
O74      O      0.415850000000     0.984680000000     0.150450000000    -0.43204    
O75      O      0.519640000000     0.943240000000     0.024990000000    -0.429061   
O76      O      0.434740000000     0.036960000000     0.014910000000    -0.431395   
O77      O      0.546780000000     0.068950000000     0.195290000000    -0.441597   
O78      O      0.688000000000     0.172400000000     0.058930000000    -0.426173   
O79      O      0.526450000000     0.172990000000     0.050220000000    -0.437845   
O80      O      0.608900000000     0.970540000000     0.124690000000    -0.421573   
O81      O      0.682170000000     0.073890000000     0.125670000000    -0.408133   
O82      O      0.552450000000     0.165570000000     0.138500000000    -0.444016   
O83      O      0.512130000000     0.965930000000     0.183020000000    -0.435709   
O84      O      0.619050000000     0.177580000000     0.993400000000    -0.422072   
O85      O      0.550450000000     0.058480000000     0.076990000000    -0.494652   
O86      O      0.482410000000     0.048060000000     0.538820000000    -0.471232   
O87      O      0.684540000000     0.998970000000     0.501920000000    -0.350999   
O88      O      0.552130000000     0.067820000000     0.452020000000    -0.391598   
O89      O      0.516510000000     0.903790000000     0.626370000000    -0.467934   
O90      O      0.585610000000     0.000630000000     0.455470000000    -0.396218   
O91      O      0.456080000000     0.949540000000     0.597750000000    -0.500952   
O92      O      0.600180000000     0.923090000000     0.548420000000    -0.444561   
O93      O      0.547690000000     0.147490000000     0.519780000000    -0.343866   
O94      O      0.533070000000     0.020650000000     0.682930000000    -0.508684   
O95      O      0.707200000000     0.117180000000     0.447260000000    -0.364177   
O96      O      0.663950000000     0.171880000000     0.577070000000    -0.372637   
O97      O      0.703030000000     0.028410000000     0.607340000000    -0.468191   
O98      O      0.727880000000     0.117050000000     0.557280000000    -0.397602   
O99      O      0.571340000000     0.130730000000     0.624950000000    -0.437652   
O100     O      0.620970000000     0.008170000000     0.684990000000    -0.484944   
O101     O      0.663710000000     0.180640000000     0.464370000000    -0.372612   
O102     O      0.584620000000     0.031110000000     0.570560000000    -0.55228    
O103     O      0.453880000000     0.437460000000     0.025920000000    -0.450529   
O104     O      0.492910000000     0.647650000000     0.043320000000    -0.422549   
O105     O      0.409480000000     0.485780000000     0.174140000000    -0.393879   
O106     O      0.624290000000     0.615700000000     0.954240000000    -0.480881   
O107     O      0.453360000000     0.585390000000     0.141020000000    -0.50562    
O108     O      0.540020000000     0.514580000000     0.953670000000    -0.49208    
O109     O      0.587210000000     0.689080000000     0.001820000000    -0.418428   
O110     O      0.416420000000     0.493170000000     0.062860000000    -0.436123   
O111     O      0.647510000000     0.516450000000     0.017700000000    -0.457448   
O112     O      0.582070000000     0.641100000000     0.182170000000    -0.425514   
O113     O      0.472530000000     0.424610000000     0.129080000000    -0.377975   
O114     O      0.659380000000     0.670300000000     0.102560000000    -0.472855   
O115     O      0.621020000000     0.731420000000     0.094730000000    -0.397009   
O116     O      0.567040000000     0.454220000000     0.092930000000    -0.46841    
O117     O      0.697880000000     0.613770000000     0.050250000000    -0.490365   
O118     O      0.546790000000     0.536910000000     0.183010000000    -0.448569   
O119     O      0.557880000000     0.567230000000     0.067370000000    -0.532781   
O120     O      0.501180000000     0.414280000000     0.484850000000    -0.501098   
O121     O      0.601420000000     0.683180000000     0.514830000000    -0.428986   
O122     O      0.467220000000     0.501140000000     0.617430000000    -0.431629   
O123     O      0.609630000000     0.613350000000     0.450140000000    -0.430282   
O124     O      0.497870000000     0.577620000000     0.552590000000    -0.446891   
O125     O      0.584920000000     0.515010000000     0.432170000000    -0.528637   
O126     O      0.708130000000     0.722570000000     0.497000000000    -0.372223   
O127     O      0.464300000000     0.405890000000     0.568510000000    -0.485236   
O128     O      0.684720000000     0.517880000000     0.496960000000    -0.543548   
O129     O      0.563950000000     0.598020000000     0.660130000000    -0.419814   
O130     O      0.579820000000     0.420000000000     0.629400000000    -0.449508   
O131     O      0.724490000000     0.650830000000     0.585830000000    -0.421928   
O132     O      0.670830000000     0.692760000000     0.616130000000    -0.438216   
O133     O      0.607880000000     0.416480000000     0.545230000000    -0.502695   
O134     O      0.732460000000     0.623100000000     0.488640000000    -0.412741   
O135     O      0.592340000000     0.523640000000     0.672660000000    -0.468109   
O136     O      0.596920000000     0.540470000000     0.554340000000    -0.494115   
S1       S      0.697430000000     0.662940000000     0.837720000000    -0.0275044  
S2       S      0.675910000000     0.732680000000     0.260250000000    -0.0215066  
S3       S      0.512300000000     0.698770000000     0.439860000000    -0.0148593  
S4       S      0.602620000000     0.217280000000     0.731160000000    -0.0409323  
S5       S      0.722840000000     0.075420000000     0.770100000000    -0.0299978  
S6       S      0.447410000000     0.068750000000     0.263350000000    -0.0595967  
S7       S      0.498670000000     0.736230000000     0.116720000000    -0.0798675  
S8       S      0.513830000000     0.366420000000     0.993360000000    -0.121031   
S9       S      0.827070000000     0.411410000000     0.438650000000    -0.0471481  
S10      S      0.269400000000     0.784990000000     0.466930000000    -0.023847   
S11      S      0.919550000000     0.583550000000     0.453940000000    -0.0289956  
S12      S      0.327300000000     0.627610000000     0.473740000000    -0.0179291  
S13      S      0.201610000000     0.674150000000     0.857700000000    -0.0360055  
S14      S      0.034660000000     0.384820000000     0.229230000000    -0.0211782  
S15      S      0.780590000000     0.184630000000     0.962170000000    -0.0388302  
S16      S      0.261140000000     0.932940000000     0.148940000000    -0.0362694  
S17      S      0.908010000000     0.697070000000     0.156420000000    -0.0183834  
S18      S      0.333830000000     0.668340000000     0.067010000000    -0.0319154  
S19      S      0.734100000000     0.778900000000     0.720080000000    -0.0421163  
S20      S      0.196070000000     0.306110000000     0.512570000000    -0.015814   
S21      S      0.825140000000     0.943660000000     0.562010000000    -0.0146366  
S22      S      0.422680000000     0.224450000000     0.644160000000    -0.0418845  
S23      S      0.066350000000     0.709440000000     0.412940000000    -0.0242875  
S24      S      0.161610000000     0.396670000000     0.691910000000    -0.0358342  
S25      S      0.261200000000     0.145020000000     0.774070000000    -0.0339225  
S26      S      0.027810000000     0.155450000000     0.256910000000    -0.0385555  
S27      S      0.842610000000     0.844880000000     0.143440000000    -0.0158382  
S28      S      0.193250000000     0.319550000000     0.161050000000    -0.0454028  
S29      S      0.812920000000     0.998590000000     0.017390000000    -0.0130907  
S30      S      0.426320000000     0.175810000000     0.966780000000    -0.0468424  
S31      S      0.029540000000     0.831490000000     0.925950000000    -0.0343943  
S32      S      0.128850000000     0.330410000000     0.947330000000    -0.0339667  


