data_structure

_audit_creation_method RASPA-1.0
_audit_creation_date 2023-6-4
_audit_author_name 'Poobodin Mano'

_cell_length_a    31.7496
_cell_length_b    31.3868
_cell_length_c    32.295
_cell_angle_alpha 87.139
_cell_angle_beta  93.818
_cell_angle_gamma 120.438
_cell_volume      27680.6

_symmetry_cell_setting          triclinic
_symmetry_space_group_name_Hall 'P 1'
_symmetry_space_group_name_H-M  'P 1'
_symmetry_Int_Tables_number     1

_symmetry_equiv_pos_as_xyz 'x,y,z'

loop_
_atom_site_label
_atom_site_type_symbol
_atom_site_fract_x
_atom_site_fract_y
_atom_site_fract_z
_atom_site_charge
C1       C      0.040600000000     0.126180000000     0.978000000000     0.38428    
C2       C      0.929250000000     0.923580000000     0.007050000000     0.462269   
C3       C      0.008150000000     0.994630000000     0.940270000000     0.475878   
C4       C      0.911220000000     0.998990000000     0.081610000000     0.39799    
C5       C      0.021900000000     0.041270000000     0.138910000000     0.480638   
C6       C      0.124620000000     0.026270000000     0.987930000000     0.468695   
C7       C      0.121790000000     0.137020000000     0.050980000000     0.47809    
C8       C      0.004260000000     0.911100000000     0.088910000000     0.444214   
C9       C      0.024110000000     0.048810000000     0.441410000000     0.472686   
C10      C      0.031580000000     0.164090000000     0.575340000000     0.464867   
C11      C      0.922270000000     0.013550000000     0.503640000000     0.455186   
C12      C      0.147680000000     0.162220000000     0.511340000000     0.470004   
C13      C      0.144090000000     0.063690000000     0.571940000000     0.470932   
C14      C      0.959050000000     0.963980000000     0.591800000000     0.455622   
C15      C      0.081470000000     0.986170000000     0.483940000000     0.409675   
C16      C      0.034570000000     0.072400000000     0.645070000000     0.470032   
C17      C      0.941880000000     0.410210000000     0.999690000000     0.479761   
C18      C      0.040680000000     0.637980000000     0.018510000000     0.434543   
C19      C      0.904900000000     0.490020000000     0.071860000000     0.475047   
C20      C      0.043740000000     0.545360000000     0.940650000000     0.482082   
C21      C      0.156850000000     0.585480000000     0.006400000000     0.407709   
C22      C      0.010800000000     0.510950000000     0.143530000000     0.47277    
C23      C      0.042220000000     0.421380000000     0.061440000000     0.4722     
C24      C      0.103390000000     0.611630000000     0.100940000000     0.456089   
C25      C      0.968570000000     0.482040000000     0.494090000000     0.473099   
C26      C      0.090800000000     0.697550000000     0.480670000000     0.539057   
C27      C      0.963520000000     0.585570000000     0.561160000000     0.474343   
C28      C      0.099600000000     0.561570000000     0.441110000000     0.551622   
C29      C      0.171220000000     0.581280000000     0.542440000000     0.543252   
C30      C      0.046230000000     0.581360000000     0.636240000000     0.484337   
C31      C      0.008950000000     0.457360000000     0.588960000000     0.406212   
C32      C      0.163290000000     0.707780000000     0.571460000000     0.529211   
C33      C      0.427430000000     0.027800000000     0.998980000000     0.481332   
C34      C      0.541080000000     0.920220000000     0.002120000000     0.465062   
C35      C      0.537780000000     0.032740000000     0.937020000000     0.476282   
C36      C      0.407840000000     0.915150000000     0.080790000000     0.453218   
C37      C      0.520640000000     0.001040000000     0.137790000000     0.472678   
C38      C      0.638610000000     0.101990000000     0.003200000000     0.383736   
C39      C      0.492940000000     0.099460000000     0.085220000000     0.384813   
C40      C      0.605660000000     0.002110000000     0.086370000000     0.470902   
C41      C      0.451810000000     0.069120000000     0.532090000000     0.512831   
C42      C      0.544710000000     0.976420000000     0.488380000000     0.44508    
C43      C      0.571110000000     0.082010000000     0.433130000000     0.472084   
C44      C      0.463940000000     0.998070000000     0.618050000000     0.381321   
C45      C      0.583230000000     0.046660000000     0.640810000000     0.480515   
C46      C      0.654430000000     0.178980000000     0.502560000000     0.462263   
C47      C      0.555860000000     0.170400000000     0.573880000000     0.484679   
C48      C      0.634530000000     0.025220000000     0.566760000000     0.444587   
C49      C      0.411850000000     0.449130000000     0.019250000000     0.491661   
C50      C      0.564650000000     0.636030000000     0.999260000000     0.467305   
C51      C      0.442080000000     0.560400000000     0.092770000000     0.489218   
C52      C      0.576680000000     0.553050000000     0.963870000000     0.450042   
C53      C      0.604120000000     0.498060000000     0.056580000000     0.441246   
C54      C      0.531870000000     0.549460000000     0.160180000000     0.496712   
C55      C      0.489760000000     0.407520000000     0.073830000000     0.490452   
C56      C      0.614700000000     0.662440000000     0.093770000000     0.38065    
C57      C      0.458650000000     0.459830000000     0.547800000000     0.485432   
C58      C      0.584920000000     0.691300000000     0.519930000000     0.436998   
C59      C      0.459610000000     0.577460000000     0.607070000000     0.488502   
C60      C      0.549940000000     0.576550000000     0.461470000000     0.487698   
C61      C      0.670780000000     0.607800000000     0.504370000000     0.420863   
C62      C      0.566650000000     0.593850000000     0.668380000000     0.472165   
C63      C      0.571820000000     0.479500000000     0.602240000000     0.498247   
C64      C      0.656670000000     0.670630000000     0.604150000000     0.47001    
C65      C      0.630360000000     0.579560000000     0.905580000000     0.179307   
C66      C      0.556640000000     0.582490000000     0.901870000000     0.0771053  
C67      C      0.638190000000     0.596920000000     0.864000000000    -0.132785   
C68      C      0.590760000000     0.642190000000     0.773670000000    -0.0842529  
C69      C      0.563550000000     0.598980000000     0.860810000000    -0.09898    
C70      C      0.604570000000     0.610670000000     0.794920000000     0.0264019  
C71      C      0.603770000000     0.604890000000     0.840890000000     0.0534981  
C72      C      0.581180000000     0.638570000000     0.730580000000     0.0709433  
C73      C      0.601110000000     0.575410000000     0.729110000000     0.0699575  
C74      C      0.611720000000     0.578600000000     0.771770000000    -0.0848769  
C75      C      0.500110000000     0.539380000000     0.399190000000     0.186949   
C76      C      0.569650000000     0.620230000000     0.397280000000     0.0787089  
C77      C      0.500010000000     0.537110000000     0.355770000000    -0.134871   
C78      C      0.528620000000     0.525550000000     0.272150000000    -0.0843275  
C79      C      0.569830000000     0.619090000000     0.354090000000    -0.0979219  
C80      C      0.539790000000     0.571200000000     0.287650000000     0.0271935  
C81      C      0.536420000000     0.576160000000     0.332950000000     0.0547514  
C82      C      0.528820000000     0.519820000000     0.229650000000     0.0734523  
C83      C      0.554520000000     0.604290000000     0.216930000000     0.0727642  
C84      C      0.554230000000     0.611260000000     0.259500000000    -0.0823752  
C85      C      0.577980000000     0.934950000000     0.452840000000     0.184121   
C86      C      0.507550000000     0.889180000000     0.492320000000     0.0771033  
C87      C      0.586210000000     0.894740000000     0.455000000000    -0.134924   
C88      C      0.612890000000     0.817410000000     0.489870000000    -0.0811526  
C89      C      0.514260000000     0.848410000000     0.493980000000    -0.0996568  
C90      C      0.565260000000     0.809670000000     0.482300000000     0.0235077  
C91      C      0.555300000000     0.851510000000     0.476950000000     0.0534899  
C92      C      0.619900000000     0.777150000000     0.500150000000     0.0659349  
C93      C      0.534430000000     0.722220000000     0.493050000000     0.0663889  
C94      C      0.526260000000     0.761000000000     0.482360000000    -0.0832587  
C95      C      0.555440000000     0.405570000000     0.642450000000     0.18507    
C96      C      0.620560000000     0.443140000000     0.596480000000     0.0774028  
C97      C      0.556570000000     0.361260000000     0.642040000000    -0.135127   
C98      C      0.574430000000     0.272580000000     0.638430000000    -0.0833884  
C99      C      0.623780000000     0.400550000000     0.596950000000    -0.102      
C100     C      0.583350000000     0.309230000000     0.607870000000     0.0266308  
C101     C      0.589130000000     0.357800000000     0.617220000000     0.054669   
C102     C      0.566380000000     0.226300000000     0.626980000000     0.069789   
C103     C      0.575210000000     0.252170000000     0.556270000000     0.0735108  
C104     C      0.583990000000     0.298430000000     0.566560000000    -0.0859699  
C105     C      0.616490000000     0.089420000000     0.705810000000     0.192844   
C106     C      0.570230000000     0.001750000000     0.703720000000     0.0829646  
C107     C      0.608430000000     0.087170000000     0.748440000000    -0.135336   
C108     C      0.557000000000     0.073270000000     0.828260000000    -0.082517   
C109     C      0.562390000000     0.998540000000     0.745820000000    -0.0999745  
C110     C      0.566540000000     0.038390000000     0.812340000000     0.0274789  
C111     C      0.579370000000     0.041520000000     0.768370000000     0.0577446  
C112     C      0.545090000000     0.069660000000     0.869690000000     0.0724463  
C113     C      0.549440000000     0.996590000000     0.879390000000     0.0750791  
C114     C      0.562080000000     0.999450000000     0.838470000000    -0.0842795  
C115     C      0.523840000000     0.974070000000     0.210230000000     0.181637   
C116     C      0.556940000000     0.059150000000     0.191330000000     0.0781297  
C117     C      0.530710000000     0.986840000000     0.252350000000    -0.134209   
C118     C      0.603610000000     0.072730000000     0.328350000000    -0.0853506  
C119     C      0.566300000000     0.072400000000     0.232910000000    -0.0991482  
C120     C      0.557480000000     0.048720000000     0.307850000000     0.0255709  
C121     C      0.551820000000     0.035930000000     0.263730000000     0.0553507  
C122     C      0.607650000000     0.083440000000     0.370470000000     0.06684    
C123     C      0.521680000000     0.048610000000     0.371500000000     0.0692312  
C124     C      0.516270000000     0.036480000000     0.329770000000    -0.0840594  
C125     C      0.586130000000     0.891990000000     0.963460000000     0.185964   
C126     C      0.507950000000     0.835880000000     0.989120000000     0.0809141  
C127     C      0.591440000000     0.851480000000     0.953870000000    -0.134208   
C128     C      0.606020000000     0.762120000000     0.965230000000    -0.0819952  
C129     C      0.512030000000     0.795780000000     0.979100000000    -0.100789   
C130     C      0.560590000000     0.759140000000     0.957050000000     0.0267675  
C131     C      0.554510000000     0.802800000000     0.962220000000     0.0556319  
C132     C      0.607810000000     0.718770000000     0.973350000000     0.0719287  
C133     C      0.522160000000     0.670040000000     0.961120000000     0.0754628  
C134     C      0.519290000000     0.712110000000     0.950710000000    -0.0834862  
C135     C      0.498180000000     0.340070000000     0.049280000000     0.18402    
C136     C      0.489310000000     0.346690000000     0.121020000000     0.0768661  
C137     C      0.495880000000     0.294680000000     0.057870000000    -0.136315   
C138     C      0.537250000000     0.230960000000     0.095210000000    -0.0821862  
C139     C      0.488380000000     0.301980000000     0.130110000000    -0.0997785  
C140     C      0.494970000000     0.230330000000     0.105740000000     0.023637   
C141     C      0.491700000000     0.275640000000     0.098200000000     0.0562158  
C142     C      0.536930000000     0.186700000000     0.091720000000     0.0660282  
C143     C      0.455100000000     0.140950000000     0.112380000000     0.0666171  
C144     C      0.454140000000     0.184920000000     0.116140000000    -0.0801148  
C145     C      0.742310000000     0.225080000000     0.497580000000     0.18327    
C146     C      0.694550000000     0.262220000000     0.477470000000     0.0767859  
C147     C      0.785110000000     0.271040000000     0.493460000000    -0.133184   
C148     C      0.871850000000     0.360540000000     0.460940000000    -0.0837601  
C149     C      0.737150000000     0.307880000000     0.470570000000    -0.0979512  
C150     C      0.830170000000     0.360690000000     0.472890000000     0.0269409  
C151     C      0.783340000000     0.312860000000     0.478860000000     0.0540362  
C152     C      0.917860000000     0.403030000000     0.464810000000     0.0727283  
C153     C      0.882240000000     0.448720000000     0.484870000000     0.0742089  
C154     C      0.835470000000     0.406320000000     0.482600000000    -0.0818885  
C155     C      0.199690000000     0.775290000000     0.621160000000     0.184025   
C156     C      0.248160000000     0.762240000000     0.575830000000     0.0811459  
C157     C      0.242760000000     0.815490000000     0.638720000000    -0.134336   
C158     C      0.337070000000     0.920640000000     0.639370000000    -0.0801516  
C159     C      0.290570000000     0.802130000000     0.592220000000    -0.102623   
C160     C      0.334180000000     0.874460000000     0.638370000000     0.02603    
C161     C      0.288470000000     0.829440000000     0.623990000000     0.0567287  
C162     C      0.383090000000     0.964150000000     0.639370000000     0.0727591  
C163     C      0.422280000000     0.916780000000     0.641920000000     0.0717135  
C164     C      0.377560000000     0.873030000000     0.643280000000    -0.08259    
C165     C      0.921700000000     0.630620000000     0.561080000000     0.184857   
C166     C      0.877610000000     0.543210000000     0.554940000000     0.0822565  
C167     C      0.879710000000     0.632400000000     0.548230000000    -0.13499    
C168     C      0.797610000000     0.637780000000     0.503780000000    -0.0821407  
C169     C      0.835750000000     0.544240000000     0.540300000000    -0.0989361  
C170     C      0.793060000000     0.592720000000     0.518930000000     0.0271623  
C171     C      0.836750000000     0.589600000000     0.535240000000     0.0553097  
C172     C      0.756060000000     0.642070000000     0.496160000000     0.0724138  
C173     C      0.705410000000     0.556530000000     0.510040000000     0.0757541  
C174     C      0.745850000000     0.551380000000     0.520010000000    -0.084875   
C175     C      0.213450000000     0.539210000000     0.569650000000     0.190002   
C176     C      0.246260000000     0.625360000000     0.580120000000     0.0840807  
C177     C      0.252310000000     0.541050000000     0.594320000000    -0.137268   
C178     C      0.343000000000     0.554260000000     0.642830000000    -0.0863085  
C179     C      0.286000000000     0.628160000000     0.603320000000    -0.103332   
C180     C      0.338370000000     0.590960000000     0.619830000000     0.0277384  
C181     C      0.290200000000     0.586080000000     0.609300000000     0.0575171  
C182     C      0.385670000000     0.551880000000     0.640830000000     0.0743784  
C183     C      0.419380000000     0.622880000000     0.596450000000     0.0758436  
C184     C      0.378350000000     0.627110000000     0.598570000000    -0.0873747  
C185     C      0.024820000000     0.601000000000     0.700810000000     0.188108   
C186     C      0.058320000000     0.548140000000     0.700300000000     0.0798156  
C187     C      0.028420000000     0.600590000000     0.744480000000    -0.135148   
C188     C      0.019840000000     0.518190000000     0.830190000000    -0.0839355  
C189     C      0.059040000000     0.544760000000     0.743620000000    -0.0984816  
C190     C      0.041380000000     0.565470000000     0.812110000000     0.0264437  
C191     C      0.044360000000     0.571480000000     0.766220000000     0.056204   
C192     C      0.018190000000     0.512330000000     0.873180000000     0.0714595  
C193     C      0.057090000000     0.598980000000     0.881390000000     0.0717538  
C194     C      0.058800000000     0.606170000000     0.838120000000    -0.082695   
C195     C      0.056530000000     0.500460000000     0.202600000000     0.184858   
C196     C      0.016790000000     0.547060000000     0.207750000000     0.0793579  
C197     C      0.066610000000     0.503540000000     0.245760000000    -0.136641   
C198     C      0.095220000000     0.585940000000     0.329610000000    -0.0869523  
C199     C      0.029400000000     0.553250000000     0.250090000000    -0.101669   
C200     C      0.068630000000     0.538110000000     0.314210000000     0.0280436  
C201     C      0.053700000000     0.530580000000     0.269590000000     0.0555783  
C202     C      0.107570000000     0.592980000000     0.371900000000     0.0778599  
C203     C      0.068590000000     0.506350000000     0.384130000000     0.0746762  
C204     C      0.056400000000     0.498010000000     0.341670000000    -0.0860388  
C205     C      0.859900000000     0.366670000000     0.972500000000     0.190312   
C206     C      0.907640000000     0.327590000000     0.979460000000     0.0787766  
C207     C      0.817090000000     0.320500000000     0.970400000000    -0.136463   
C208     C      0.738370000000     0.230020000000     0.009330000000    -0.0844384  
C209     C      0.865150000000     0.280820000000     0.978390000000    -0.0986207  
C210     C      0.773460000000     0.229730000000     0.985360000000     0.0268209  
C211     C      0.819150000000     0.277140000000     0.976740000000     0.0553366  
C212     C      0.694280000000     0.186750000000     0.015880000000     0.0664052  
C213     C      0.719320000000     0.141310000000     0.978000000000     0.0661553  
C214     C      0.764050000000     0.184370000000     0.970490000000    -0.082221   
C215     C      0.187020000000     0.653540000000     0.127690000000     0.187684   
C216     C      0.141950000000     0.695280000000     0.121030000000     0.0825349  
C217     C      0.230860000000     0.699270000000     0.129140000000    -0.135195   
C218     C      0.305580000000     0.788270000000     0.084180000000    -0.0839703  
C219     C      0.185150000000     0.741330000000     0.122600000000    -0.09794    
C220     C      0.275940000000     0.790190000000     0.113190000000     0.02504    
C221     C      0.230290000000     0.743590000000     0.123660000000     0.0555627  
C222     C      0.348290000000     0.830680000000     0.073290000000     0.067171   
C223     C      0.333780000000     0.878730000000     0.118290000000     0.0688311  
C224     C      0.289770000000     0.836360000000     0.129750000000    -0.0824312  
C225     C      0.828460000000     0.458640000000     0.106780000000     0.181385   
C226     C      0.837770000000     0.490920000000     0.037460000000     0.075631   
C227     C      0.780050000000     0.449580000000     0.104750000000    -0.134516   
C228     C      0.707690000000     0.487870000000     0.100920000000    -0.0831535  
C229     C      0.790230000000     0.482620000000     0.035180000000    -0.10125    
C230     C      0.714470000000     0.462920000000     0.069700000000     0.0248649  
C231     C      0.761130000000     0.462750000000     0.069290000000     0.0534928  
C232     C      0.668890000000     0.496970000000     0.097060000000     0.0690706  
C233     C      0.640150000000     0.452740000000     0.034320000000     0.0687912  
C234     C      0.679390000000     0.444000000000     0.036680000000    -0.0848575  
C235     C      0.212470000000     0.555400000000     0.002360000000     0.187292   
C236     C      0.237200000000     0.630090000000     0.036940000000     0.0785164  
C237     C      0.251240000000     0.552090000000     0.022730000000    -0.133062   
C238     C      0.318490000000     0.542350000000     0.092280000000    -0.0858523  
C239     C      0.277630000000     0.628960000000     0.056040000000    -0.0992893  
C240     C      0.325460000000     0.585130000000     0.070500000000     0.0252133  
C241     C      0.283440000000     0.588250000000     0.050680000000     0.053428   
C242     C      0.358720000000     0.536290000000     0.103470000000     0.0674831  
C243     C      0.412200000000     0.615030000000     0.074430000000     0.071883   
C244     C      0.373200000000     0.622740000000     0.063680000000    -0.0846965  
C245     C      0.739780000000     0.699750000000     0.631150000000     0.188186   
C246     C      0.705420000000     0.751760000000     0.628570000000     0.0818061  
C247     C      0.786730000000     0.741330000000     0.637970000000    -0.13388    
C248     C      0.881000000000     0.833560000000     0.617150000000    -0.0831104  
C249     C      0.751360000000     0.793290000000     0.635260000000    -0.0999963  
C250     C      0.843030000000     0.834370000000     0.636440000000     0.0262824  
C251     C      0.793310000000     0.789060000000     0.638000000000     0.0550903  
C252     C      0.922770000000     0.877820000000     0.606570000000     0.0708938  
C253     C      0.892580000000     0.923880000000     0.636350000000     0.0734095  
C254     C      0.851270000000     0.880380000000     0.648850000000    -0.0843523  
C255     C      0.190320000000     0.248700000000     0.494430000000     0.18796    
C256     C      0.230360000000     0.202000000000     0.493760000000     0.0788642  
C257     C      0.235720000000     0.292600000000     0.495050000000    -0.136858   
C258     C      0.327870000000     0.370030000000     0.536590000000    -0.0850443  
C259     C      0.276140000000     0.245350000000     0.494660000000    -0.0991969  
C260     C      0.326530000000     0.336770000000     0.508410000000     0.0262223  
C261     C      0.279190000000     0.291200000000     0.497950000000     0.0545783  
C262     C      0.372150000000     0.411220000000     0.548640000000     0.0717766  
C263     C      0.414740000000     0.388360000000     0.505520000000     0.0707879  
C264     C      0.370740000000     0.346530000000     0.492630000000    -0.084828   
C265     C      0.835090000000     0.961500000000     0.512620000000     0.184559   
C266     C      0.870180000000     0.045880000000     0.491670000000     0.0700331  
C267     C      0.793840000000     0.961840000000     0.525500000000    -0.137096   
C268     C      0.702690000000     0.967670000000     0.536970000000    -0.0844393  
C269     C      0.828650000000     0.046290000000     0.501780000000    -0.10286    
C270     C      0.750420000000     0.008230000000     0.538060000000     0.0237107  
C271     C      0.791380000000     0.005200000000     0.521720000000     0.0524888  
C272     C      0.664500000000     0.973020000000     0.549560000000     0.0706913  
C273     C      0.719770000000     0.057070000000     0.565520000000     0.0625185  
C274     C      0.758870000000     0.052700000000     0.554210000000    -0.085355   
C275     C      0.395010000000     0.075110000000     0.574820000000     0.18758    
C276     C      0.374470000000     0.054640000000     0.503420000000     0.0771683  
C277     C      0.348210000000     0.067400000000     0.579740000000    -0.139338   
C278     C      0.273250000000     0.100360000000     0.568410000000    -0.0850094  
C279     C      0.328310000000     0.049830000000     0.507440000000    -0.0992811  
C280     C      0.269940000000     0.058240000000     0.551810000000     0.0266457  
C281     C      0.315250000000     0.056810000000     0.546030000000     0.0558046  
C282     C      0.230890000000     0.100830000000     0.576940000000     0.0736588  
C283     C      0.181980000000     0.018210000000     0.554700000000     0.0755531  
C284     C      0.223650000000     0.016690000000     0.545220000000    -0.083296   
C285     C      0.133550000000     0.775450000000     0.444330000000     0.186375   
C286     C      0.047950000000     0.735600000000     0.454590000000     0.0853233  
C287     C      0.134460000000     0.820190000000     0.435070000000    -0.13595    
C288     C      0.119260000000     0.913560000000     0.427500000000    -0.0823979  
C289     C      0.047740000000     0.778730000000     0.443690000000    -0.102457   
C290     C      0.095800000000     0.869130000000     0.450540000000     0.0257682  
C291     C      0.092180000000     0.822630000000     0.438540000000     0.0568908  
C292     C      0.117740000000     0.954900000000     0.440530000000     0.0672292  
C293     C      0.074180000000     0.909190000000     0.499240000000     0.0700646  
C294     C      0.075720000000     0.868420000000     0.487830000000    -0.0854671  
C295     C      0.978330000000     0.199820000000     0.568590000000     0.177529   
C296     C      0.047520000000     0.231840000000     0.615910000000     0.0767215  
C297     C      0.972880000000     0.240770000000     0.575600000000    -0.13302    
C298     C      0.957280000000     0.324020000000     0.601340000000    -0.0808737  
C299     C      0.039960000000     0.270120000000     0.625950000000    -0.0991811  
C300     C      0.000740000000     0.322410000000     0.609740000000     0.0256006  
C301     C      0.003740000000     0.276670000000     0.604410000000     0.0543021  
C302     C      0.958740000000     0.369760000000     0.598990000000     0.0656334  
C303     C      0.043340000000     0.411030000000     0.617680000000     0.0692222  
C304     C      0.043410000000     0.366810000000     0.619960000000    -0.0826864  
C305     C      0.971410000000     0.013140000000     0.879350000000     0.189619   
C306     C      0.013680000000     0.969230000000     0.874240000000     0.0812333  
C307     C      0.974130000000     0.022830000000     0.836370000000    -0.133976   
C308     C      0.970840000000     0.025360000000     0.742070000000    -0.0868173  
C309     C      0.015220000000     0.976840000000     0.831340000000    -0.097802   
C310     C      0.006050000000     0.021250000000     0.767710000000     0.0312173  
C311     C      0.997740000000     0.006200000000     0.812200000000     0.0529797  
C312     C      0.981010000000     0.042690000000     0.701160000000     0.0718551  
C313     C      0.059510000000     0.050940000000     0.710010000000     0.0736155  
C314     C      0.050700000000     0.034090000000     0.751050000000    -0.0846569  
C315     C      0.029670000000     0.088950000000     0.199440000000     0.186074   
C316     C      0.026950000000     0.011500000000     0.206350000000     0.081372   
C317     C      0.034680000000     0.092980000000     0.242810000000    -0.134898   
C318     C      0.990330000000     0.013640000000     0.333350000000    -0.0861042  
C319     C      0.028410000000     0.013570000000     0.249420000000    -0.0991496  
C320     C      0.027410000000     0.054810000000     0.313230000000     0.0295341  
C321     C      0.031590000000     0.054310000000     0.267970000000     0.0566718  
C322     C      0.987330000000     0.013830000000     0.376160000000     0.0730523  
C323     C      0.055440000000     0.095420000000     0.379320000000     0.0768863  
C324     C      0.059170000000     0.096680000000     0.336400000000    -0.0844704  
C325     C      0.865700000000     0.837600000000     0.002500000000     0.18466    
C326     C      0.846360000000     0.900110000000     0.011680000000     0.0833069  
C327     C      0.820610000000     0.802190000000     0.018460000000    -0.133747   
C328     C      0.744440000000     0.742080000000     0.079530000000    -0.0815364  
C329     C      0.801180000000     0.865770000000     0.026910000000    -0.0990664  
C330     C      0.744660000000     0.780640000000     0.055540000000     0.0258818  
C331     C      0.789260000000     0.816670000000     0.033420000000     0.0565487  
C332     C      0.701160000000     0.705010000000     0.095930000000     0.0671685  
C333     C      0.659420000000     0.746410000000     0.070690000000     0.0698417  
C334     C      0.702000000000     0.783890000000     0.053130000000    -0.082567   
C335     C      0.327480000000     0.415080000000     0.024500000000     0.190606   
C336     C      0.357880000000     0.378240000000     0.982200000000     0.0863524  
C337     C      0.285620000000     0.369410000000     0.031270000000    -0.136999   
C338     C      0.198030000000     0.270330000000     0.045120000000    -0.0850533  
C339     C      0.315440000000     0.332170000000     0.986920000000    -0.0973704  
C340     C      0.240270000000     0.276340000000     0.027860000000     0.0277537  
C341     C      0.280460000000     0.326380000000     0.014760000000     0.0544468  
C342     C      0.161120000000     0.223710000000     0.057150000000     0.0734268  
C343     C      0.205710000000     0.187490000000     0.036040000000     0.0766749  
C344     C      0.244460000000     0.234020000000     0.025240000000    -0.0833949  
C345     C      0.655430000000     0.973070000000     0.123220000000     0.186771   
C346     C      0.691330000000     0.046640000000     0.082020000000     0.0843448  
C347     C      0.699490000000     0.972310000000     0.124220000000    -0.13339    
C348     C      0.784580000000     0.959930000000     0.104200000000    -0.0811206  
C349     C      0.734850000000     0.046140000000     0.081830000000    -0.0987302  
C350     C      0.784820000000     0.004940000000     0.099110000000     0.0253879  
C351     C      0.739270000000     0.007790000000     0.101920000000     0.0555561  
C352     C      0.827420000000     0.958430000000     0.099480000000     0.0665465  
C353     C      0.870130000000     0.043990000000     0.082920000000     0.0693512  
C354     C      0.829160000000     0.047380000000     0.089610000000    -0.0836029  
C355     C      0.340120000000     0.980570000000     0.986310000000     0.192269   
C356     C      0.385580000000     0.063460000000     0.961520000000     0.0784011  
C357     C      0.296930000000     0.982400000000     0.980680000000    -0.134143   
C358     C      0.205300000000     0.983320000000     0.960320000000    -0.08553    
C359     C      0.342460000000     0.064950000000     0.952860000000    -0.0973313  
C360     C      0.250900000000     0.027190000000     0.960870000000     0.0288327  
C361     C      0.297270000000     0.024920000000     0.964210000000     0.0552296  
C362     C      0.163310000000     0.984290000000     0.968040000000     0.0797641  
C363     C      0.206940000000     0.071770000000     0.966840000000     0.0758507  
C364     C      0.250940000000     0.072160000000     0.962230000000    -0.0819894  
C365     C      0.071280000000     0.724720000000     0.031870000000     0.18362    
C366     C      0.987060000000     0.664580000000     0.036940000000     0.0676894  
C367     C      0.062710000000     0.759510000000     0.049850000000    -0.135865   
C368     C      0.043990000000     0.822920000000     0.103150000000    -0.083964   
C369     C      0.977840000000     0.698430000000     0.054570000000    -0.102465   
C370     C      0.006610000000     0.783730000000     0.080290000000     0.0250957  
C371     C      0.015870000000     0.746420000000     0.062150000000     0.0539613  
C372     C      0.039690000000     0.863650000000     0.111170000000     0.0719474  
C373     C      0.958440000000     0.824110000000     0.082550000000     0.0690483  
C374     C      0.962050000000     0.783140000000     0.072470000000    -0.0843885  
C375     C      0.079830000000     0.388060000000     0.018680000000     0.176257   
C376     C      0.022340000000     0.338550000000     0.069000000000     0.0784097  
C377     C      0.084670000000     0.347950000000     0.009070000000    -0.132478   
C378     C      0.091110000000     0.257650000000     0.991710000000    -0.0798268  
C379     C      0.024130000000     0.297220000000     0.057500000000    -0.100801   
C380     C      0.050570000000     0.256940000000     0.007690000000     0.0228476  
C381     C      0.054460000000     0.301380000000     0.026120000000     0.0544584  
C382     C      0.086280000000     0.214220000000     0.976670000000     0.0704303  
C383     C      0.001750000000     0.171200000000     0.989280000000     0.0698957  
C384     C      0.005050000000     0.213640000000     0.004000000000    -0.0844357  
Co1      Co     0.017590000000     0.077750000000     0.056770000000     0.839945   
Co2      Co     0.034460000000     0.958240000000     0.016080000000     1.10771    
Co3      Co     0.061800000000     0.066010000000     0.000310000000     1.10237    
Co4      Co     0.974680000000     0.984220000000     0.070570000000     1.10453    
Co5      Co     0.079330000000     0.055130000000     0.507980000000     1.05038    
Co6      Co     0.983380000000     0.067920000000     0.563680000000     1.08679    
Co7      Co     0.996210000000     0.989110000000     0.516500000000     0.926578   
Co8      Co     0.098170000000     0.123730000000     0.583460000000     1.09918    
Co9      Co     0.050230000000     0.485950000000     0.005080000000     0.987296   
Co10     Co     0.998760000000     0.563350000000     0.069010000000     1.05101    
Co11     Co     0.970410000000     0.452140000000     0.076260000000     1.11696    
Co12     Co     0.085790000000     0.579110000000     0.023410000000     1.045      
Co13     Co     0.067630000000     0.516040000000     0.522870000000     1.00889    
Co14     Co     0.061170000000     0.647060000000     0.563620000000     1.1482     
Co15     Co     0.015770000000     0.533300000000     0.560800000000     0.945972   
Co16     Co     0.136670000000     0.643390000000     0.498400000000     1.24284    
Co17     Co     0.477000000000     0.019690000000     0.067810000000     1.13464    
Co18     Co     0.570210000000     0.022170000000     0.013280000000     1.14001    
Co19     Co     0.532730000000     0.077390000000     0.010790000000     0.772381   
Co20     Co     0.500750000000     0.936310000000     0.068580000000     1.12613    
Co21     Co     0.531310000000     0.069730000000     0.589170000000     1.12893    
Co22     Co     0.621470000000     0.082290000000     0.511800000000     1.11018    
Co23     Co     0.543320000000     0.117720000000     0.495150000000     1.10483    
Co24     Co     0.534160000000     0.996310000000     0.565850000000     0.921386   
Co25     Co     0.508760000000     0.480390000000     0.010710000000     1.11613    
Co26     Co     0.539330000000     0.593690000000     0.072630000000     1.12333    
Co27     Co     0.468860000000     0.479850000000     0.100990000000     1.1335     
Co28     Co     0.602580000000     0.583040000000     0.046710000000     0.864136   
Co29     Co     0.564080000000     0.524650000000     0.528950000000     1.04042    
Co30     Co     0.550890000000     0.634210000000     0.586960000000     1.09151    
Co31     Co     0.509810000000     0.522200000000     0.612770000000     1.12571    
Co32     Co     0.617250000000     0.623280000000     0.533050000000     1.05774    
H1       H      0.568660000000     0.662040000000     0.715390000000     0.0228889  
H2       H      0.524160000000     0.577960000000     0.915330000000     0.0311083  
H3       H      0.622140000000     0.553440000000     0.786800000000     0.0488262  
H4       H      0.535740000000     0.604260000000     0.844120000000     0.0553766  
H5       H      0.585320000000     0.667910000000     0.790470000000     0.0500072  
H6       H      0.669540000000     0.601030000000     0.848840000000     0.0621106  
H7       H      0.605250000000     0.548470000000     0.712780000000     0.0242348  
H8       H      0.692880000000     0.572640000000     0.909440000000     0.0865072  
H9       H      0.656170000000     0.546710000000     0.952290000000     0.107558   
H10      H      0.518590000000     0.483350000000     0.219210000000     0.0272281  
H11      H      0.598540000000     0.653200000000     0.412300000000     0.0320725  
H12      H      0.563560000000     0.647400000000     0.269920000000     0.0506375  
H13      H      0.598030000000     0.650710000000     0.337860000000     0.0555329  
H14      H      0.519220000000     0.493960000000     0.292680000000     0.0504702  
H15      H      0.471150000000     0.504960000000     0.339840000000     0.0637773  
H16      H      0.564060000000     0.635670000000     0.196020000000     0.0307749  
H17      H      0.433530000000     0.472380000000     0.403450000000     0.0898087  
H18      H      0.455540000000     0.505200000000     0.450360000000     0.111838   
H19      H      0.656740000000     0.784480000000     0.507710000000     0.0263918  
H20      H      0.477200000000     0.885720000000     0.508710000000     0.0186576  
H21      H      0.489090000000     0.752670000000     0.475080000000     0.0488648  
H22      H      0.488710000000     0.815580000000     0.510840000000     0.0514902  
H23      H      0.644350000000     0.854390000000     0.489720000000     0.0457775  
H24      H      0.616280000000     0.897040000000     0.439010000000     0.0630817  
H25      H      0.502500000000     0.685380000000     0.493700000000     0.0324357  
H26      H      0.633890000000     0.975440000000     0.411410000000     0.0874333  
H27      H      0.598070000000     0.002320000000     0.420910000000     0.104051   
H28      H      0.559320000000     0.198600000000     0.651190000000     0.0275667  
H29      H      0.646110000000     0.474070000000     0.577760000000     0.0208183  
H30      H      0.589850000000     0.325230000000     0.541820000000     0.0494303  
H31      H      0.651220000000     0.400120000000     0.579020000000     0.0525166  
H32      H      0.573630000000     0.279570000000     0.670780000000     0.0488891  
H33      H      0.531250000000     0.329410000000     0.660080000000     0.0632776  
H34      H      0.575850000000     0.245940000000     0.523640000000     0.0221279  
H35      H      0.505750000000     0.379750000000     0.690000000000     0.0867679  
H36      H      0.530750000000     0.443230000000     0.677440000000     0.101904   
H37      H      0.539130000000     0.097980000000     0.881180000000     0.0264047  
H38      H      0.553700000000     0.967120000000     0.687390000000     0.0227794  
H39      H      0.569390000000     0.971750000000     0.827850000000     0.0497228  
H40      H      0.540500000000     0.962270000000     0.759800000000     0.0549009  
H41      H      0.558650000000     0.103220000000     0.808910000000     0.0516445  
H42      H      0.625330000000     0.120910000000     0.766010000000     0.0650163  
H43      H      0.547240000000     0.966240000000     0.898600000000     0.0287358  
H44      H      0.661720000000     0.137180000000     0.659030000000     0.12077    
H45      H      0.665560000000     0.165990000000     0.705980000000     0.0927247  
H46      H      0.643900000000     0.101700000000     0.385570000000     0.0205492  
H47      H      0.567620000000     0.089210000000     0.168750000000     0.0332756  
H48      H      0.480090000000     0.017900000000     0.314610000000     0.0533974  
H49      H      0.583270000000     0.110980000000     0.240900000000     0.0569583  
H50      H      0.636170000000     0.082560000000     0.312060000000     0.0500829  
H51      H      0.520790000000     0.958480000000     0.276450000000     0.0646549  
H52      H      0.488760000000     0.038470000000     0.387420000000     0.0305947  
H53      H      0.508230000000     0.912040000000     0.173690000000     0.0997673  
H54      H      0.498640000000     0.899680000000     0.226320000000     0.0860701  
H55      H      0.642930000000     0.722410000000     0.982530000000     0.0274726  
H56      H      0.474520000000     0.827080000000     0.003580000000     0.0220758  
H57      H      0.483910000000     0.707620000000     0.941350000000     0.050204   
H58      H      0.482460000000     0.759300000000     0.987030000000     0.0550843  
H59      H      0.639350000000     0.797390000000     0.969210000000     0.0479059  
H60      H      0.623860000000     0.858070000000     0.938970000000     0.0624797  
H61      H      0.488530000000     0.634510000000     0.960150000000     0.0303015  
H62      H      0.651200000000     0.943070000000     0.935460000000     0.0903581  
H63      H      0.615780000000     0.968380000000     0.948950000000     0.121098   
H64      H      0.569970000000     0.189110000000     0.081580000000     0.0288681  
H65      H      0.485850000000     0.365450000000     0.146760000000     0.023725   
H66      H      0.420720000000     0.183110000000     0.124290000000     0.0517159  
H67      H      0.485670000000     0.288480000000     0.161910000000     0.0554203  
H68      H      0.569610000000     0.265460000000     0.087220000000     0.0505355  
H69      H      0.499740000000     0.275060000000     0.033010000000     0.0645775  
H70      H      0.421930000000     0.106230000000     0.118220000000     0.0343483  
H71      H      0.511550000000     0.337970000000     0.986770000000     0.0856005  
H72      H      0.520490000000     0.394970000000     0.000650000000     0.0959211  
H73      H      0.949400000000     0.400210000000     0.458140000000     0.0240571  
H74      H      0.659630000000     0.260500000000     0.472080000000     0.0192536  
H75      H      0.804380000000     0.408870000000     0.491000000000     0.0485454  
H76      H      0.733780000000     0.339030000000     0.458970000000     0.0521079  
H77      H      0.869520000000     0.327050000000     0.450680000000     0.0481293  
H78      H      0.820090000000     0.273350000000     0.500230000000     0.062435   
H79      H      0.885290000000     0.482870000000     0.494070000000     0.0276437  
H80      H      0.719410000000     0.148560000000     0.497110000000     0.0816847  
H81      H      0.782130000000     0.188300000000     0.507990000000     0.0829252  
H82      H      0.384480000000     0.999310000000     0.635730000000     0.0249572  
H83      H      0.252620000000     0.742480000000     0.551440000000     0.0188191  
H84      H      0.376950000000     0.838170000000     0.643860000000     0.0487285  
H85      H      0.325020000000     0.812200000000     0.579090000000     0.0553312  
H86      H      0.304330000000     0.923330000000     0.635880000000     0.0502639  
H87      H      0.240370000000     0.837110000000     0.662640000000     0.0637929  
H88      H      0.455080000000     0.914270000000     0.640920000000     0.0138211  
H89      H      0.122500000000     0.745580000000     0.617900000000     0.0969062  
H90      H      0.154960000000     0.788660000000     0.657020000000     0.0871371  
H91      H      0.761060000000     0.678160000000     0.487670000000     0.030436   
H92      H      0.875910000000     0.507800000000     0.557150000000     0.025084   
H93      H      0.739070000000     0.515370000000     0.530610000000     0.0472588  
H94      H      0.803840000000     0.509520000000     0.531680000000     0.0513374  
H95      H      0.832880000000     0.670350000000     0.499140000000     0.048917   
H96      H      0.881000000000     0.667440000000     0.549230000000     0.0619788  
H97      H      0.669750000000     0.523600000000     0.512650000000     0.0227094  
H98      H      0.962290000000     0.706380000000     0.574530000000     0.083901   
H99      H      0.992650000000     0.673370000000     0.589260000000     0.0783616  
H100     H      0.387530000000     0.521690000000     0.656950000000     0.0210843  
H101     H      0.244570000000     0.659000000000     0.576210000000     0.020724   
H102     H      0.376460000000     0.656010000000     0.580240000000     0.0499753  
H103     H      0.314680000000     0.663700000000     0.614630000000     0.0537206  
H104     H      0.312780000000     0.525870000000     0.659880000000     0.0499121  
H105     H      0.255950000000     0.508480000000     0.597230000000     0.0647002  
H106     H      0.448470000000     0.650310000000     0.577700000000     0.0177554  
H107     H      0.186010000000     0.464930000000     0.554860000000     0.0866006  
H108     H      0.160010000000     0.493890000000     0.523670000000     0.101645   
H109     H      0.001880000000     0.474850000000     0.885620000000     0.0295452  
H110     H      0.071580000000     0.527930000000     0.684360000000     0.0293726  
H111     H      0.075100000000     0.643370000000     0.825210000000     0.0509749  
H112     H      0.071540000000     0.521600000000     0.759390000000     0.0557667  
H113     H      0.004460000000     0.485680000000     0.811180000000     0.0521988  
H114     H      0.014630000000     0.619560000000     0.761480000000     0.0646109  
H115     H      0.072730000000     0.631310000000     0.900680000000     0.029397   
H116     H      0.987480000000     0.640450000000     0.699340000000     0.0861298  
H117     H      0.984030000000     0.613860000000     0.651900000000     0.106136   
H118     H      0.127510000000     0.630780000000     0.382500000000     0.0274258  
H119     H      0.996190000000     0.563800000000     0.194470000000     0.0201736  
H120     H      0.036170000000     0.460460000000     0.330610000000     0.0511816  
H121     H      0.019310000000     0.574980000000     0.267670000000     0.0565744  
H122     H      0.106160000000     0.617820000000     0.309070000000     0.0525512  
H123     H      0.087800000000     0.488020000000     0.260260000000     0.0642272  
H124     H      0.057030000000     0.474440000000     0.404780000000     0.0236487  
H125     H      0.082670000000     0.488080000000     0.148130000000     0.116466   
H126     H      0.098800000000     0.467500000000     0.194760000000     0.0890268  
H127     H      0.668060000000     0.189340000000     0.033910000000     0.0297412  
H128     H      0.942520000000     0.329210000000     0.984990000000     0.0231816  
H129     H      0.790310000000     0.182310000000     0.952200000000     0.0487192  
H130     H      0.868450000000     0.248150000000     0.982340000000     0.0527257  
H131     H      0.744690000000     0.263740000000     0.022950000000     0.0507922  
H132     H      0.782040000000     0.318600000000     0.965740000000     0.0649711  
H133     H      0.712720000000     0.107120000000     0.965060000000     0.0305716  
H134     H      0.822610000000     0.405930000000     0.961470000000     0.0902168  
H135     H      0.887320000000     0.443490000000     0.965700000000     0.108948   
H136     H      0.369570000000     0.826390000000     0.050660000000     0.0277444  
H137     H      0.107910000000     0.695520000000     0.116490000000     0.0256635  
H138     H      0.267390000000     0.839520000000     0.151880000000     0.0498802  
H139     H      0.183010000000     0.774700000000     0.119250000000     0.053257   
H140     H      0.295650000000     0.753930000000     0.069440000000     0.0505075  
H141     H      0.265510000000     0.700180000000     0.132910000000     0.0623904  
H142     H      0.344210000000     0.913630000000     0.132250000000     0.0311138  
H143     H      0.157600000000     0.576950000000     0.138620000000     0.107177   
H144     H      0.222400000000     0.612800000000     0.140870000000     0.0902053  
H145     H      0.666300000000     0.518400000000     0.121060000000     0.0301675  
H146     H      0.858840000000     0.506770000000     0.010010000000     0.0255695  
H147     H      0.683300000000     0.424210000000     0.012070000000     0.0470793  
H148     H      0.777130000000     0.493860000000     0.007310000000     0.052298   
H149     H      0.734000000000     0.503110000000     0.126930000000     0.0504881  
H150     H      0.758090000000     0.434970000000     0.131790000000     0.063593   
H151     H      0.614930000000     0.439280000000     0.007430000000     0.0181893  
H152     H      0.883290000000     0.463740000000     0.151480000000     0.110589   
H153     H      0.823810000000     0.435160000000     0.169180000000     0.0880929  
H154     H      0.351820000000     0.501890000000     0.118650000000     0.0218907  
H155     H      0.231890000000     0.660280000000     0.044470000000     0.0283498  
H156     H      0.380200000000     0.656620000000     0.047480000000     0.0495838  
H157     H      0.303010000000     0.658710000000     0.076200000000     0.0501604  
H158     H      0.281970000000     0.512810000000     0.098880000000     0.0488163  
H159     H      0.257560000000     0.522490000000     0.015390000000     0.0645818  
H160     H      0.448280000000     0.644300000000     0.066220000000     0.0350393  
H161     H      0.161980000000     0.528980000000     0.950970000000     0.101269   
H162     H      0.194740000000     0.497400000000     0.962220000000     0.0938958  
H163     H      0.949630000000     0.875380000000     0.589350000000     0.0247407  
H164     H      0.674850000000     0.758110000000     0.624170000000     0.0226624  
H165     H      0.824760000000     0.883290000000     0.666050000000     0.0480427  
H166     H      0.753570000000     0.828830000000     0.635120000000     0.0524496  
H167     H      0.877300000000     0.799400000000     0.607120000000     0.0479688  
H168     H      0.817880000000     0.736110000000     0.643250000000     0.0622207  
H169     H      0.895750000000     0.958740000000     0.643790000000     0.0205861  
H170     H      0.700860000000     0.621620000000     0.636100000000     0.112547   
H171     H      0.765290000000     0.649780000000     0.640390000000     0.0904452  
H172     H      0.371060000000     0.435420000000     0.570840000000     0.0264439  
H173     H      0.229730000000     0.167080000000     0.494870000000     0.0281572  
H174     H      0.371450000000     0.322080000000     0.470550000000     0.0490974  
H175     H      0.308770000000     0.242470000000     0.496060000000     0.0538298  
H176     H      0.294970000000     0.363700000000     0.550410000000     0.0495404  
H177     H      0.236990000000     0.327810000000     0.494280000000     0.0636227  
H178     H      0.448210000000     0.394540000000     0.492850000000     0.0234937  
H179     H      0.114250000000     0.220650000000     0.485020000000     0.114159   
H180     H      0.150650000000     0.285880000000     0.487980000000     0.0902776  
H181     H      0.627820000000     0.941240000000     0.546920000000     0.0279147  
H182     H      0.899560000000     0.079790000000     0.478760000000     0.0241626  
H183     H      0.795420000000     0.084470000000     0.557370000000     0.0450757  
H184     H      0.826850000000     0.079550000000     0.495420000000     0.0492281  
H185     H      0.694330000000     0.932560000000     0.524910000000     0.046682   
H186     H      0.764160000000     0.928410000000     0.538550000000     0.0627447  
H187     H      0.727540000000     0.092610000000     0.576390000000     0.0232081  
H188     H      0.803290000000     0.884910000000     0.522560000000     0.09145    
H189     H      0.858140000000     0.912210000000     0.496150000000     0.108928   
H190     H      0.235170000000     0.134650000000     0.588680000000     0.0231395  
H191     H      0.383110000000     0.048350000000     0.473210000000     0.023567   
H192     H      0.219720000000     0.982960000000     0.533730000000     0.0526772  
H193     H      0.303500000000     0.041720000000     0.480440000000     0.0559391  
H194     H      0.308580000000     0.133000000000     0.574610000000     0.0503658  
H195     H      0.338890000000     0.073900000000     0.609610000000     0.0649715  
H196     H      0.146850000000     0.985030000000     0.549920000000     0.0291749  
H197     H      0.417190000000     0.101080000000     0.635750000000     0.0919427  
H198     H      0.465620000000     0.115960000000     0.604440000000     0.118466   
H199     H      0.133540000000     0.988240000000     0.421340000000     0.0293142  
H200     H      0.013850000000     0.703520000000     0.463680000000     0.0217303  
H201     H      0.059950000000     0.835800000000     0.507880000000     0.0508023  
H202     H      0.014010000000     0.779230000000     0.445410000000     0.0561907  
H203     H      0.136710000000     0.915690000000     0.399170000000     0.0502522  
H204     H      0.168990000000     0.853890000000     0.430260000000     0.0645157  
H205     H      0.056720000000     0.906010000000     0.527930000000     0.0319328  
H206     H      0.208700000000     0.807360000000     0.436000000000     0.0882636  
H207     H      0.180210000000     0.745020000000     0.452500000000     0.0964145  
H208     H      0.925660000000     0.370220000000     0.589060000000     0.0288209  
H209     H      0.077920000000     0.230620000000     0.632160000000     0.0228872  
H210     H      0.078110000000     0.368690000000     0.626770000000     0.0483218  
H211     H      0.063630000000     0.295120000000     0.650010000000     0.0528208  
H212     H      0.922760000000     0.290660000000     0.594790000000     0.0473716  
H213     H      0.943580000000     0.243590000000     0.559040000000     0.0608573  
H214     H      0.078100000000     0.444500000000     0.623930000000     0.0330404  
H215     H      0.912380000000     0.165110000000     0.532610000000     0.0834701  
H216     H      0.934930000000     0.125870000000     0.548140000000     0.0903246  
H217     H      0.952790000000     0.045380000000     0.682410000000     0.0215058  
H218     H      0.030770000000     0.949080000000     0.887870000000     0.0218282  
H219     H      0.079350000000     0.032340000000     0.769850000000     0.0524868  
H220     H      0.031860000000     0.961380000000     0.813540000000     0.0541282  
H221     H      0.935540000000     0.015190000000     0.753390000000     0.0490141  
H222     H      0.958240000000     0.043790000000     0.822130000000     0.064667   
H223     H      0.094710000000     0.060700000000     0.698580000000     0.0279398  
H224     H      0.932870000000     0.011690000000     0.930960000000     0.11919    
H225     H      0.925580000000     0.042320000000     0.886030000000     0.0919721  
H226     H      0.958960000000     0.980630000000     0.390770000000     0.0260205  
H227     H      0.025000000000     0.979200000000     0.193550000000     0.0313499  
H228     H      0.087760000000     0.129550000000     0.321680000000     0.0523788  
H229     H      0.026690000000     0.983150000000     0.268150000000     0.0573927  
H230     H      0.964020000000     0.981240000000     0.316160000000     0.0526947  
H231     H      0.035900000000     0.124210000000     0.257020000000     0.0646747  
H232     H      0.082000000000     0.127720000000     0.396570000000     0.0313377  
H233     H      0.026910000000     0.154420000000     0.192760000000     0.0877127  
H234     H      0.006710000000     0.119550000000     0.148050000000     0.107795   
H235     H      0.701990000000     0.674340000000     0.112210000000     0.0257583  
H236     H      0.855020000000     0.938290000000     0.009640000000     0.0258345  
H237     H      0.700260000000     0.813340000000     0.035720000000     0.0465172  
H238     H      0.777470000000     0.878730000000     0.036000000000     0.0533017  
H239     H      0.777130000000     0.739480000000     0.084600000000     0.0504076  
H240     H      0.810040000000     0.763490000000     0.018870000000     0.062369   
H241     H      0.626450000000     0.748630000000     0.065870000000     0.0316854  
H242     H      0.881740000000     0.784210000000     0.984440000000     0.0863202  
H243     H      0.922940000000     0.845190000000     0.967240000000     0.101984   
H244     H      0.128740000000     0.221070000000     0.069150000000     0.026536   
H245     H      0.387010000000     0.380100000000     0.965010000000     0.0149075  
H246     H      0.277050000000     0.236220000000     0.014500000000     0.049846   
H247     H      0.311930000000     0.301060000000     0.970810000000     0.0540052  
H248     H      0.191670000000     0.300680000000     0.048150000000     0.0469727  
H249     H      0.259120000000     0.368300000000     0.051220000000     0.0631266  
H250     H      0.209330000000     0.155500000000     0.031570000000     0.0279187  
H251     H      0.301020000000     0.454940000000     0.052700000000     0.0880783  
H252     H      0.359960000000     0.491490000000     0.031590000000     0.10199    
H253     H      0.825950000000     0.923250000000     0.103980000000     0.031404   
H254     H      0.689870000000     0.076240000000     0.064540000000     0.0297232  
H255     H      0.833030000000     0.083650000000     0.087300000000     0.0472543  
H256     H      0.763660000000     0.074810000000     0.063880000000     0.0540392  
H257     H      0.751540000000     0.925650000000     0.110980000000     0.0486673  
H258     H      0.702520000000     0.944330000000     0.142950000000     0.0635025  
H259     H      0.903110000000     0.078040000000     0.075060000000     0.0211044  
H260     H      0.588610000000     0.942830000000     0.152720000000     0.0993319  
H261     H      0.622990000000     0.913450000000     0.165610000000     0.0876752  
H262     H      0.129420000000     0.949200000000     0.970500000000     0.0120314  
H263     H      0.419860000000     0.096680000000     0.954890000000     0.0243219  
H264     H      0.284660000000     0.107380000000     0.962230000000     0.0493869  
H265     H      0.345120000000     0.098100000000     0.938600000000     0.0526142  
H266     H      0.201620000000     0.947680000000     0.955830000000     0.0488045  
H267     H      0.263340000000     0.950030000000     0.989640000000     0.064919   
H268     H      0.208280000000     0.106680000000     0.969950000000     0.0244017  
H269     H      0.365300000000     0.929560000000     0.993450000000     0.118638   
H270     H      0.302410000000     0.904440000000     0.000860000000     0.0910463  
H271     H      0.071340000000     0.895610000000     0.124990000000     0.0265101  
H272     H      0.955890000000     0.627620000000     0.032930000000     0.017565   
H273     H      0.931500000000     0.753470000000     0.055600000000     0.0464703  
H274     H      0.940970000000     0.686220000000     0.063090000000     0.0512953  
H275     H      0.077890000000     0.823890000000     0.112350000000     0.049562   
H276     H      0.092450000000     0.797370000000     0.052540000000     0.0621258  
H277     H      0.925360000000     0.824530000000     0.072600000000     0.030397   
H278     H      0.123640000000     0.719930000000     0.997930000000     0.118004   
H279     H      0.144470000000     0.777400000000     0.021110000000     0.0886309  
H280     H      0.118910000000     0.215120000000     0.967350000000     0.0323461  
H281     H      0.998250000000     0.333410000000     0.093480000000     0.0175675  
H282     H      0.972080000000     0.212010000000     0.013210000000     0.0463538  
H283     H      0.001110000000     0.261990000000     0.072700000000     0.0522494  
H284     H      0.126840000000     0.290710000000     0.992660000000     0.0482901  
H285     H      0.107260000000     0.352020000000     0.983690000000     0.0702381  
H286     H      0.966110000000     0.137760000000     0.988910000000     0.0245299  
H287     H      0.091310000000     0.454020000000     0.987270000000     0.0571955  
N1       N      0.588860000000     0.571940000000     0.924250000000    -0.22048    
N2       N      0.583760000000     0.603480000000     0.708970000000    -0.206395   
N3       N      0.661960000000     0.566390000000     0.924340000000    -0.22148    
N4       N      0.538040000000     0.579220000000     0.419980000000    -0.224533   
N5       N      0.539940000000     0.558380000000     0.202020000000    -0.207651   
N6       N      0.461440000000     0.502790000000     0.419390000000    -0.219277   
N7       N      0.541530000000     0.933580000000     0.475330000000    -0.216631   
N8       N      0.580560000000     0.730230000000     0.503560000000    -0.199322   
N9       N      0.605810000000     0.974110000000     0.427620000000    -0.219786   
N10      N      0.583360000000     0.443950000000     0.615240000000    -0.228572   
N11      N      0.565970000000     0.216050000000     0.586050000000    -0.207838   
N12      N      0.527670000000     0.409610000000     0.670630000000    -0.219121   
N13      N      0.592680000000     0.046610000000     0.682990000000    -0.224523   
N14      N      0.542540000000     0.032260000000     0.895250000000    -0.205613   
N15      N      0.648810000000     0.133780000000     0.688580000000    -0.219676   
N16      N      0.534210000000     0.010470000000     0.179440000000    -0.220335   
N17      N      0.566960000000     0.071520000000     0.391830000000    -0.207803   
N18      N      0.507910000000     0.925820000000     0.202110000000    -0.218886   
N19      N      0.545470000000     0.883790000000     0.983980000000    -0.219324   
N20      N      0.565390000000     0.674030000000     0.976020000000    -0.203269   
N21      N      0.620350000000     0.937780000000     0.949900000000    -0.220645   
N22      N      0.492980000000     0.365410000000     0.081010000000    -0.224605   
N23      N      0.495320000000     0.141860000000     0.097920000000    -0.184505   
N24      N      0.509150000000     0.358750000000     0.009850000000    -0.219661   
N25      N      0.696860000000     0.221550000000     0.492260000000    -0.219741   
N26      N      0.923260000000     0.445800000000     0.479590000000    -0.203541   
N27      N      0.747550000000     0.184550000000     0.502920000000    -0.214096   
N28      N      0.202920000000     0.748020000000     0.590040000000    -0.233067   
N29      N      0.424560000000     0.961460000000     0.637200000000    -0.18577    
N30      N      0.156100000000     0.767920000000     0.633220000000    -0.218479   
N31      N      0.920950000000     0.586230000000     0.561210000000    -0.225613   
N32      N      0.710500000000     0.602200000000     0.501710000000    -0.193483   
N33      N      0.961880000000     0.672850000000     0.575130000000    -0.218048   
N34      N      0.210370000000     0.581660000000     0.563240000000    -0.2376     
N35      N      0.421850000000     0.584090000000     0.615510000000    -0.212538   
N36      N      0.183280000000     0.496520000000     0.548960000000    -0.219341   
N37      N      0.042590000000     0.576820000000     0.678760000000    -0.221736   
N38      N      0.038400000000     0.552430000000     0.898740000000    -0.205573   
N39      N      0.999120000000     0.621330000000     0.682100000000    -0.219846   
N40      N      0.028510000000     0.519540000000     0.184190000000    -0.224165   
N41      N      0.092960000000     0.553500000000     0.399200000000    -0.220622   
N42      N      0.078850000000     0.482590000000     0.180040000000    -0.220274   
N43      N      0.904440000000     0.369490000000     0.980710000000    -0.225852   
N44      N      0.684230000000     0.142880000000     0.999560000000    -0.18412    
N45      N      0.856500000000     0.408140000000     0.966760000000    -0.219545   
N46      N      0.143160000000     0.652170000000     0.118910000000    -0.218802   
N47      N      0.363160000000     0.875550000000     0.090730000000    -0.200048   
N48      N      0.188960000000     0.611510000000     0.135270000000    -0.218825   
N49      N      0.857210000000     0.479360000000     0.072640000000    -0.223995   
N50      N      0.636570000000     0.481370000000     0.063120000000    -0.199395   
N51      N      0.846490000000     0.451050000000     0.144160000000    -0.221421   
N52      N      0.202860000000     0.591660000000     0.012990000000    -0.20729    
N53      N      0.404680000000     0.570740000000     0.091580000000    -0.206516   
N54      N      0.187180000000     0.524570000000     0.970390000000    -0.216546   
N55      N      0.699970000000     0.706140000000     0.622670000000    -0.221749   
N56      N      0.926310000000     0.922450000000     0.612950000000    -0.201494   
N57      N      0.734780000000     0.654010000000     0.634890000000    -0.218972   
N58      N      0.188430000000     0.203700000000     0.497640000000    -0.22285    
N59      N      0.415420000000     0.420070000000     0.533760000000    -0.207692   
N60      N      0.148920000000     0.251680000000     0.489700000000    -0.21983    
N61      N      0.875500000000     0.005640000000     0.500840000000    -0.226879   
N62      N      0.672840000000     0.018060000000     0.561710000000    -0.20738    
N63      N      0.833350000000     0.917290000000     0.511710000000    -0.218336   
N64      N      0.407480000000     0.066310000000     0.536790000000    -0.228624   
N65      N      0.185430000000     0.060440000000     0.569160000000    -0.203869   
N66      N      0.428110000000     0.096660000000     0.607200000000    -0.220298   
N67      N      0.090670000000     0.734790000000     0.457430000000    -0.237291   
N68      N      0.092790000000     0.951260000000     0.474860000000    -0.192179   
N69      N      0.176530000000     0.775530000000     0.444500000000    -0.22156    
N70      N      0.018620000000     0.197900000000     0.586230000000    -0.220911   
N71      N      0.002400000000     0.412950000000     0.604140000000    -0.190291   
N72      N      0.941140000000     0.161760000000     0.546850000000    -0.215836   
N73      N      0.995820000000     0.990740000000     0.898450000000    -0.225431   
N74      N      0.025130000000     0.055640000000     0.685330000000    -0.204514   
N75      N      0.942820000000     0.024370000000     0.900700000000    -0.219253   
N76      N      0.026950000000     0.048170000000     0.181130000000    -0.221764   
N77      N      0.021090000000     0.053500000000     0.399140000000    -0.203514   
N78      N      0.022600000000     0.123550000000     0.177830000000    -0.217835   
N79      N      0.880680000000     0.887180000000     0.004600000000    -0.222307   
N80      N      0.658280000000     0.705410000000     0.088850000000    -0.186603   
N81      N      0.892840000000     0.821760000000     0.984620000000    -0.218531   
N82      N      0.365500000000     0.417580000000     0.004620000000    -0.230974   
N83      N      0.163480000000     0.182360000000     0.049930000000    -0.206128   
N84      N      0.330230000000     0.456620000000     0.038100000000    -0.222672   
N85      N      0.650570000000     0.008180000000     0.099090000000    -0.222523   
N86      N      0.869400000000     0.999930000000     0.087680000000    -0.188985   
N87      N      0.619340000000     0.940280000000     0.147870000000    -0.219856   
N88      N      0.384780000000     0.023020000000     0.980840000000    -0.22393    
N89      N      0.164560000000     0.027990000000     0.972840000000    -0.204315   
N90      N      0.336290000000     0.935900000000     0.995540000000    -0.21736    
N91      N      0.033620000000     0.676280000000     0.027800000000    -0.220404   
N92      N      0.998870000000     0.865690000000     0.097690000000    -0.203196   
N93      N      0.116170000000     0.740940000000     0.016920000000    -0.221308   
N94      N      0.049220000000     0.383810000000     0.049700000000    -0.223594   
N95      N      0.042670000000     0.170690000000     0.978740000000    -0.189226   
N96      N      0.099790000000     0.426210000000     0.991000000000    -0.167179   
O1       O      0.007390000000     0.090090000000     0.998840000000    -0.441104   
O2       O      0.962990000000     0.913040000000     0.011350000000    -0.442722   
O3       O      0.008770000000     0.028140000000     0.960520000000    -0.424854   
O4       O      0.916540000000     0.962930000000     0.094650000000    -0.4163     
O5       O      0.027260000000     0.971000000000     0.957630000000    -0.457095   
O6       O      0.946590000000     0.036350000000     0.063690000000    -0.450173   
O7       O      0.940320000000     0.966000000000     0.018000000000    -0.44722    
O8       O      0.077540000000     0.122880000000     0.968060000000    -0.39744    
O9       O      0.028680000000     0.075460000000     0.113860000000    -0.447045   
O10      O      0.101690000000     0.994100000000     0.015480000000    -0.453863   
O11      O      0.119330000000     0.100850000000     0.034670000000    -0.438533   
O12      O      0.967940000000     0.917980000000     0.084660000000    -0.382167   
O13      O      0.042560000000     0.941960000000     0.071580000000    -0.435114   
O14      O      0.081740000000     0.133140000000     0.057530000000    -0.44583    
O15      O      0.006480000000     0.999380000000     0.124050000000    -0.437626   
O16      O      0.107660000000     0.053140000000     0.972760000000    -0.398412   
O17      O      0.034180000000     0.016490000000     0.041550000000    -0.612875   
O18      O      0.059320000000     0.081190000000     0.462520000000    -0.435808   
O19      O      0.009350000000     0.134380000000     0.546760000000    -0.446068   
O20      O      0.931220000000     0.980200000000     0.514880000000    -0.423253   
O21      O      0.122930000000     0.166950000000     0.537790000000    -0.45523    
O22      O      0.957670000000     0.056350000000     0.508160000000    -0.447336   
O23      O      0.139930000000     0.119230000000     0.504550000000    -0.401377   
O24      O      0.064590000000     0.159510000000     0.595560000000    -0.43428    
O25      O      0.997130000000     0.008250000000     0.459430000000    -0.45292    
O26      O      0.104460000000     0.031870000000     0.555320000000    -0.417121   
O27      O      0.951110000000     0.999870000000     0.585860000000    -0.432697   
O28      O      0.046050000000     0.973550000000     0.507600000000    -0.456574   
O29      O      0.074670000000     0.082820000000     0.630250000000    -0.460347   
O30      O      0.003630000000     0.078780000000     0.622540000000    -0.441289   
O31      O      0.106110000000     0.030970000000     0.471630000000    -0.399935   
O32      O      0.146970000000     0.103770000000     0.580930000000    -0.439726   
O33      O      0.990210000000     0.962610000000     0.570350000000    -0.423392   
O34      O      0.042040000000     0.066840000000     0.544800000000    -0.557743   
O35      O      0.986440000000     0.423580000000     0.995110000000    -0.413485   
O36      O      0.005050000000     0.594990000000     0.017440000000    -0.440988   
O37      O      0.920960000000     0.466340000000     0.093220000000    -0.444905   
O38      O      0.064630000000     0.580690000000     0.965470000000    -0.421799   
O39      O      0.934050000000     0.523120000000     0.048250000000    -0.450381   
O40      O      0.033100000000     0.503460000000     0.954500000000    -0.471123   
O41      O      0.081310000000     0.640220000000     0.025780000000    -0.383292   
O42      O      0.931340000000     0.428000000000     0.028570000000    -0.471234   
O43      O      0.119490000000     0.541620000000     0.006050000000    -0.482556   
O44      O      0.992230000000     0.535270000000     0.125650000000    -0.441018   
O45      O      0.000120000000     0.411940000000     0.069560000000    -0.444065   
O46      O      0.110200000000     0.583340000000     0.079460000000    -0.431197   
O47      O      0.063000000000     0.610660000000     0.094510000000    -0.434159   
O48      O      0.071450000000     0.465360000000     0.053060000000    -0.450732   
O49      O      0.149410000000     0.621440000000     0.008960000000    -0.397868   
O50      O      0.008360000000     0.475670000000     0.124530000000    -0.474381   
O51      O      0.019800000000     0.519720000000     0.042020000000    -0.53084    
O52      O      0.002680000000     0.473480000000     0.500850000000    -0.461713   
O53      O      0.076500000000     0.689900000000     0.517150000000    -0.491631   
O54      O      0.968070000000     0.550450000000     0.577370000000    -0.396116   
O55      O      0.119270000000     0.604360000000     0.454130000000    -0.532693   
O56      O      0.998370000000     0.619080000000     0.541890000000    -0.477082   
O57      O      0.081740000000     0.526600000000     0.466790000000    -0.479034   
O58      O      0.107570000000     0.672970000000     0.467100000000    -0.503747   
O59      O      0.974690000000     0.519500000000     0.511030000000    -0.422223   
O60      O      0.130470000000     0.542650000000     0.542020000000    -0.492966   
O61      O      0.043690000000     0.615420000000     0.616360000000    -0.473053   
O62      O      0.974380000000     0.467070000000     0.582540000000    -0.372992   
O63      O      0.166560000000     0.694750000000     0.536270000000    -0.511886   
O64      O      0.124140000000     0.682110000000     0.589300000000    -0.488065   
O65      O      0.051330000000     0.489590000000     0.577310000000    -0.463902   
O66      O      0.175170000000     0.620190000000     0.525860000000    -0.506982   
O67      O      0.051350000000     0.551360000000     0.615740000000    -0.40122    
O68      O      0.070580000000     0.592210000000     0.533260000000    -0.506019   
O69      O      0.426280000000     0.999220000000     0.027530000000    -0.458332   
O70      O      0.576950000000     0.963740000000     0.007340000000    -0.405843   
O71      O      0.538620000000     0.068260000000     0.953740000000    -0.428001   
O72      O      0.434290000000     0.908210000000     0.057910000000    -0.457989   
O73      O      0.540300000000     0.001690000000     0.960770000000    -0.456416   
O74      O      0.425260000000     0.958160000000     0.095670000000    -0.385045   
O75      O      0.501740000000     0.909110000000     0.018640000000    -0.448317   
O76      O      0.468440000000     0.065000000000     0.992700000000    -0.425077   
O77      O      0.524850000000     0.035300000000     0.112990000000    -0.437601   
O78      O      0.629260000000     0.060010000000     0.990550000000    -0.428392   
O79      O      0.528270000000     0.102870000000     0.064770000000    -0.422176   
O80      O      0.568800000000     0.958970000000     0.083220000000    -0.456733   
O81      O      0.602770000000     0.036890000000     0.067530000000    -0.438923   
O82      O      0.455590000000     0.056750000000     0.091740000000    -0.415267   
O83      O      0.499590000000     0.957810000000     0.123720000000    -0.459011   
O84      O      0.604930000000     0.105500000000     0.020740000000    -0.418195   
O85      O      0.509550000000     0.997270000000     0.036280000000    -0.637251   
O86      O      0.475560000000     0.066180000000     0.563060000000    -0.474553   
O87      O      0.587270000000     0.014920000000     0.491220000000    -0.436367   
O88      O      0.535020000000     0.076990000000     0.451220000000    -0.461391   
O89      O      0.472830000000     0.988560000000     0.581900000000    -0.438463   
O90      O      0.611240000000     0.097530000000     0.453860000000    -0.453093   
O91      O      0.491210000000     0.041430000000     0.634170000000    -0.397561   
O92      O      0.511560000000     0.974110000000     0.510470000000    -0.410541   
O93      O      0.472240000000     0.079640000000     0.498060000000    -0.442772   
O94      O      0.589130000000     0.084410000000     0.621400000000    -0.436494   
O95      O      0.656510000000     0.147880000000     0.527390000000    -0.452696   
O96      O      0.550050000000     0.161370000000     0.535530000000    -0.47789    
O97      O      0.591250000000     0.990460000000     0.561160000000    -0.417037   
O98      O      0.640710000000     0.067980000000     0.564530000000    -0.447991   
O99      O      0.551810000000     0.137180000000     0.600120000000    -0.424585   
O100     O      0.555380000000     0.007090000000     0.622610000000    -0.467016   
O101     O      0.613040000000     0.168080000000     0.484930000000    -0.425109   
O102     O      0.561410000000     0.074430000000     0.537940000000    -0.565171   
O103     O      0.446540000000     0.471030000000     0.994820000000    -0.447031   
O104     O      0.526660000000     0.604690000000     0.016020000000    -0.431186   
O105     O      0.436200000000     0.518700000000     0.105300000000    -0.445984   
O106     O      0.608330000000     0.560640000000     0.992640000000    -0.407356   
O107     O      0.481650000000     0.591310000000     0.077350000000    -0.455602   
O108     O      0.533570000000     0.534430000000     0.974460000000    -0.462266   
O109     O      0.602910000000     0.637320000000     0.013470000000    -0.436728   
O110     O      0.420890000000     0.447740000000     0.058020000000    -0.468136   
O111     O      0.571550000000     0.481550000000     0.026540000000    -0.428837   
O112     O      0.542130000000     0.583890000000     0.133800000000    -0.420716   
O113     O      0.493900000000     0.434990000000     0.102830000000    -0.448567   
O114     O      0.614510000000     0.621070000000     0.096230000000    -0.445839   
O115     O      0.573980000000     0.660720000000     0.083550000000    -0.40026    
O116     O      0.478980000000     0.417900000000     0.038320000000    -0.474619   
O117     O      0.611320000000     0.535330000000     0.076360000000    -0.417516   
O118     O      0.508860000000     0.505860000000     0.147990000000    -0.48004    
O119     O      0.520470000000     0.528060000000     0.058340000000    -0.565377   
O120     O      0.499290000000     0.467870000000     0.535810000000    -0.440027   
O121     O      0.547990000000     0.653330000000     0.532080000000    -0.453742   
O122     O      0.471400000000     0.550800000000     0.629280000000    -0.44885    
O123     O      0.582780000000     0.614160000000     0.479990000000    -0.43443    
O124     O      0.485150000000     0.599950000000     0.577260000000    -0.476898   
O125     O      0.535350000000     0.535580000000     0.479720000000    -0.45994    
O126     O      0.624910000000     0.691870000000     0.526580000000    -0.374635   
O127     O      0.458440000000     0.487320000000     0.574670000000    -0.472434   
O128     O      0.630040000000     0.570330000000     0.513960000000    -0.519365   
O129     O      0.553000000000     0.620620000000     0.647530000000    -0.439134   
O130     O      0.532430000000     0.476230000000     0.611240000000    -0.465791   
O131     O      0.655390000000     0.637050000000     0.583410000000    -0.441393   
O132     O      0.620180000000     0.677000000000     0.599890000000    -0.456306   
O133     O      0.595160000000     0.510130000000     0.574360000000    -0.463642   
O134     O      0.674880000000     0.650330000000     0.504910000000    -0.393648   
O135     O      0.559320000000     0.554720000000     0.652650000000    -0.481529   
O136     O      0.554660000000     0.576050000000     0.565760000000    -0.537718   


