data_structure

_audit_creation_method RASPA-1.0
_audit_creation_date 2023-5-19
_audit_author_name 'Poobodin Mano'

_cell_length_a    37.4528
_cell_length_b    29.0411
_cell_length_c    35.3482
_cell_angle_alpha 90
_cell_angle_beta  90
_cell_angle_gamma 90
_cell_volume      38447.2

_symmetry_cell_setting          triclinic
_symmetry_space_group_name_Hall 'P 1'
_symmetry_space_group_name_H-M  'P 1'
_symmetry_Int_Tables_number     1

_symmetry_equiv_pos_as_xyz 'x,y,z'

loop_
_atom_site_label
_atom_site_type_symbol
_atom_site_fract_x
_atom_site_fract_y
_atom_site_fract_z
_atom_site_charge
C1       C      0.475330000000     0.563810000000     0.096190000000     0.400528   
C2       C      0.468680000000     0.250280000000     0.476490000000     0.401465   
C3       C      0.456930000000     0.195070000000     0.111840000000     0.400878   
C4       C      0.457590000000     0.623160000000     0.464600000000     0.403358   
C5       C      0.041370000000     0.580670000000     0.452370000000     0.411364   
C6       C      0.041190000000     0.241680000000     0.120010000000     0.410074   
C7       C      0.071380000000     0.569250000000     0.077540000000     0.40781    
C8       C      0.058100000000     0.264520000000     0.491370000000     0.409325   
C9       C      0.294960000000     0.502160000000     0.234950000000     0.400448   
C10      C      0.301620000000     0.315670000000     0.354650000000     0.40128    
C11      C      0.312730000000     0.442790000000     0.366530000000     0.403275   
C12      C      0.313370000000     0.370890000000     0.219310000000     0.400824   
C13      C      0.229110000000     0.324280000000     0.211150000000     0.410057   
C14      C      0.228970000000     0.485300000000     0.378800000000     0.411607   
C15      C      0.198920000000     0.496710000000     0.253620000000     0.407891   
C16      C      0.212200000000     0.301460000000     0.339780000000     0.409398   
C17      C      0.151500000000     0.279800000000     0.178240000000    -0.0787745  
C18      C      0.118790000000     0.286170000000     0.152910000000    -0.0787523  
C19      C      0.085830000000     0.262120000000     0.169400000000     0.00781828 
C20      C      0.184460000000     0.303850000000     0.161760000000     0.00787066 
C21      C      0.127980000000     0.280190000000     0.435910000000    -0.0788217  
C22      C      0.142320000000     0.285790000000     0.395240000000    -0.0788375  
C23      C      0.178110000000     0.260810000000     0.390120000000     0.0108645  
C24      C      0.092180000000     0.305180000000     0.441030000000     0.0108035  
C25      C      0.150140000000     0.537720000000     0.180090000000    -0.0788035  
C26      C      0.120150000000     0.528240000000     0.151080000000    -0.0787758  
C27      C      0.127480000000     0.552210000000     0.113090000000     0.00898025 
C28      C      0.142820000000     0.513760000000     0.218080000000     0.00903298 
C29      C      0.371360000000     0.302350000000     0.164540000000    -0.078628   
C30      C      0.398940000000     0.263620000000     0.166610000000    -0.0785904  
C31      C      0.401320000000     0.237360000000     0.129110000000     0.00720828 
C32      C      0.368980000000     0.328610000000     0.202030000000     0.00725594 
C33      C      0.371600000000     0.513480000000     0.417360000000    -0.0785242  
C34      C      0.398740000000     0.552460000000     0.413750000000    -0.078612   
C35      C      0.401700000000     0.579860000000     0.450590000000     0.00801853 
C36      C      0.368640000000     0.486080000000     0.380520000000     0.00795336 
C37      C      0.401480000000     0.294590000000     0.406350000000    -0.0766795  
C38      C      0.368820000000     0.271340000000     0.424790000000    -0.0767884  
C39      C      0.333620000000     0.295080000000     0.413770000000     0.00658719 
C40      C      0.436680000000     0.270850000000     0.417370000000     0.00648259 
C41      C      0.117400000000     0.531260000000     0.426030000000    -0.0788344  
C42      C      0.152950000000     0.534710000000     0.405150000000    -0.0788651  
C43      C      0.182300000000     0.507130000000     0.425180000000     0.00793629 
C44      C      0.088060000000     0.558840000000     0.406000000000     0.00793693 
C45      C      0.374820000000     0.537990000000     0.183800000000    -0.0799713  
C46      C      0.395460000000     0.527990000000     0.147340000000    -0.0800073  
C47      C      0.434510000000     0.544340000000     0.149730000000     0.00627588 
C48      C      0.335780000000     0.521630000000     0.181410000000     0.00625569 
C49      C      0.475330000000     0.563810000000     0.596190000000     0.400513   
C50      C      0.468680000000     0.250280000000     0.976490000000     0.401229   
C51      C      0.456930000000     0.195070000000     0.611840000000     0.400872   
C52      C      0.457590000000     0.623160000000     0.964600000000     0.403365   
C53      C      0.041370000000     0.580670000000     0.952370000000     0.411369   
C54      C      0.041190000000     0.241680000000     0.620010000000     0.410068   
C55      C      0.071380000000     0.569250000000     0.577540000000     0.407792   
C56      C      0.058100000000     0.264520000000     0.991370000000     0.409085   
C57      C      0.294960000000     0.502160000000     0.734950000000     0.400128   
C58      C      0.301620000000     0.315670000000     0.854650000000     0.401266   
C59      C      0.312730000000     0.442790000000     0.866530000000     0.403273   
C60      C      0.313370000000     0.370890000000     0.719310000000     0.400823   
C61      C      0.229110000000     0.324280000000     0.711150000000     0.410053   
C62      C      0.228970000000     0.485300000000     0.878800000000     0.411604   
C63      C      0.198920000000     0.496710000000     0.753620000000     0.407889   
C64      C      0.212200000000     0.301460000000     0.839790000000     0.40938    
C65      C      0.151500000000     0.279800000000     0.678240000000    -0.078774   
C66      C      0.118790000000     0.286170000000     0.652910000000    -0.078746   
C67      C      0.085830000000     0.262120000000     0.669400000000     0.00781335 
C68      C      0.184460000000     0.303850000000     0.661760000000     0.00787379 
C69      C      0.127980000000     0.280190000000     0.935910000000    -0.0788074  
C70      C      0.142320000000     0.285790000000     0.895240000000    -0.0788432  
C71      C      0.178110000000     0.260810000000     0.890120000000     0.0108615  
C72      C      0.092180000000     0.305180000000     0.941030000000     0.0107748  
C73      C      0.150140000000     0.537720000000     0.680090000000    -0.0788018  
C74      C      0.120150000000     0.528240000000     0.651080000000    -0.0787768  
C75      C      0.127480000000     0.552210000000     0.613090000000     0.00897813 
C76      C      0.142820000000     0.513760000000     0.718080000000     0.00903249 
C77      C      0.371360000000     0.302350000000     0.664540000000    -0.0786213  
C78      C      0.398940000000     0.263620000000     0.666610000000    -0.0785974  
C79      C      0.401320000000     0.237360000000     0.629110000000     0.00721373 
C80      C      0.368980000000     0.328610000000     0.702030000000     0.00725183 
C81      C      0.371600000000     0.513480000000     0.917360000000    -0.0785144  
C82      C      0.398740000000     0.552460000000     0.913750000000    -0.0786227  
C83      C      0.401700000000     0.579860000000     0.950590000000     0.00802732 
C84      C      0.368640000000     0.486080000000     0.880520000000     0.00794096 
C85      C      0.401480000000     0.294590000000     0.906350000000    -0.0766883  
C86      C      0.368820000000     0.271340000000     0.924790000000    -0.0767742  
C87      C      0.333620000000     0.295080000000     0.913770000000     0.00656773 
C88      C      0.436680000000     0.270850000000     0.917370000000     0.00649147 
C89      C      0.117400000000     0.531260000000     0.926030000000    -0.0788244  
C90      C      0.152950000000     0.534710000000     0.905150000000    -0.0788748  
C91      C      0.182300000000     0.507130000000     0.925180000000     0.0079421  
C92      C      0.088060000000     0.558840000000     0.906000000000     0.00792814 
C93      C      0.374820000000     0.537990000000     0.683800000000    -0.0799765  
C94      C      0.395460000000     0.527990000000     0.647340000000    -0.0799595  
C95      C      0.434510000000     0.544340000000     0.649740000000     0.00617421 
C96      C      0.335780000000     0.521630000000     0.681410000000     0.00624722 
C97      C      0.475330000000     0.063810000000     0.096190000000     0.400444   
C98      C      0.468680000000     0.750280000000     0.476490000000     0.401467   
C99      C      0.456930000000     0.695070000000     0.111840000000     0.400893   
C100     C      0.457590000000     0.123160000000     0.464600000000     0.40337    
C101     C      0.041370000000     0.080670000000     0.452370000000     0.411379   
C102     C      0.041190000000     0.741690000000     0.120010000000     0.410107   
C103     C      0.071380000000     0.069250000000     0.077540000000     0.407839   
C104     C      0.058100000000     0.764520000000     0.491370000000     0.409327   
C105     C      0.294960000000     0.002160000000     0.234950000000     0.400759   
C106     C      0.301620000000     0.815670000000     0.354650000000     0.40137    
C107     C      0.312730000000     0.942780000000     0.366530000000     0.403213   
C108     C      0.313370000000     0.870900000000     0.219310000000     0.400829   
C109     C      0.229110000000     0.824280000000     0.211150000000     0.410057   
C110     C      0.228970000000     0.985300000000     0.378800000000     0.410959   
C111     C      0.198920000000     0.996710000000     0.253620000000     0.407382   
C112     C      0.212200000000     0.801460000000     0.339780000000     0.409398   
C113     C      0.151500000000     0.779800000000     0.178240000000    -0.0787578  
C114     C      0.118790000000     0.786170000000     0.152910000000    -0.0787652  
C115     C      0.085830000000     0.762120000000     0.169400000000     0.00784449 
C116     C      0.184460000000     0.803860000000     0.161760000000     0.00783853 
C117     C      0.127980000000     0.780190000000     0.435910000000    -0.0788418  
C118     C      0.142320000000     0.785790000000     0.395240000000    -0.0788286  
C119     C      0.178110000000     0.760810000000     0.390120000000     0.0108614  
C120     C      0.092180000000     0.805170000000     0.441030000000     0.0108356  
C121     C      0.150140000000     0.037720000000     0.180090000000    -0.0789917  
C122     C      0.120150000000     0.028240000000     0.151080000000    -0.0783861  
C123     C      0.127480000000     0.052210000000     0.113090000000     0.00888257 
C124     C      0.142820000000     0.013760000000     0.218080000000     0.00940279 
C125     C      0.371360000000     0.802350000000     0.164540000000    -0.0786434  
C126     C      0.398940000000     0.763620000000     0.166610000000    -0.0785877  
C127     C      0.401320000000     0.737360000000     0.129110000000     0.00720875 
C128     C      0.368980000000     0.828610000000     0.202030000000     0.00722867 
C129     C      0.371600000000     0.013480000000     0.417360000000    -0.0778021  
C130     C      0.398740000000     0.052460000000     0.413750000000    -0.0788379  
C131     C      0.401700000000     0.079860000000     0.450590000000     0.00810227 
C132     C      0.368640000000     0.986080000000     0.380520000000     0.00727116 
C133     C      0.401480000000     0.794590000000     0.406350000000    -0.0766792  
C134     C      0.368820000000     0.771340000000     0.424790000000    -0.0767807  
C135     C      0.333620000000     0.795090000000     0.413770000000     0.00657032 
C136     C      0.436680000000     0.770850000000     0.417370000000     0.00648013 
C137     C      0.117400000000     0.031260000000     0.426030000000    -0.0784254  
C138     C      0.152950000000     0.034710000000     0.405150000000    -0.0790602  
C139     C      0.182300000000     0.007130000000     0.425180000000     0.0082926  
C140     C      0.088060000000     0.058850000000     0.406000000000     0.00779961 
C141     C      0.374820000000     0.037990000000     0.183800000000    -0.0801732  
C142     C      0.395460000000     0.027990000000     0.147340000000    -0.0796103  
C143     C      0.434510000000     0.044340000000     0.149730000000     0.00616796 
C144     C      0.335780000000     0.021630000000     0.181410000000     0.00664845 
C145     C      0.475330000000     0.063810000000     0.596190000000     0.400429   
C146     C      0.468680000000     0.750280000000     0.976490000000     0.40123    
C147     C      0.456930000000     0.695070000000     0.611840000000     0.400886   
C148     C      0.457590000000     0.123160000000     0.964600000000     0.403377   
C149     C      0.041370000000     0.080670000000     0.952370000000     0.411384   
C150     C      0.041190000000     0.741690000000     0.620010000000     0.410101   
C151     C      0.071380000000     0.069250000000     0.577540000000     0.407822   
C152     C      0.058100000000     0.764520000000     0.991370000000     0.409087   
C153     C      0.294960000000     0.002160000000     0.734950000000     0.400439   
C154     C      0.301620000000     0.815670000000     0.854650000000     0.401356   
C155     C      0.312730000000     0.942780000000     0.866530000000     0.403211   
C156     C      0.313370000000     0.870900000000     0.719310000000     0.400828   
C157     C      0.229110000000     0.824280000000     0.711150000000     0.410053   
C158     C      0.228970000000     0.985300000000     0.878800000000     0.410956   
C159     C      0.198920000000     0.996710000000     0.753620000000     0.40738    
C160     C      0.212200000000     0.801460000000     0.839790000000     0.40938    
C161     C      0.151500000000     0.779800000000     0.678240000000    -0.0787573  
C162     C      0.118790000000     0.786170000000     0.652910000000    -0.0787589  
C163     C      0.085830000000     0.762120000000     0.669400000000     0.00783956 
C164     C      0.184460000000     0.803860000000     0.661760000000     0.00784167 
C165     C      0.127980000000     0.780190000000     0.935910000000    -0.0788274  
C166     C      0.142320000000     0.785790000000     0.895240000000    -0.0788343  
C167     C      0.178110000000     0.760810000000     0.890120000000     0.0108584  
C168     C      0.092180000000     0.805170000000     0.941030000000     0.0108069  
C169     C      0.150140000000     0.037720000000     0.680090000000    -0.0789901  
C170     C      0.120150000000     0.028240000000     0.651080000000    -0.078387   
C171     C      0.127480000000     0.052210000000     0.613090000000     0.00888042 
C172     C      0.142820000000     0.013760000000     0.718080000000     0.00940241 
C173     C      0.371360000000     0.802350000000     0.664540000000    -0.0786367  
C174     C      0.398940000000     0.763620000000     0.666610000000    -0.0785947  
C175     C      0.401320000000     0.737360000000     0.629110000000     0.0072142  
C176     C      0.368980000000     0.828610000000     0.702030000000     0.00722456 
C177     C      0.371600000000     0.013480000000     0.917360000000    -0.0777923  
C178     C      0.398740000000     0.052460000000     0.913750000000    -0.0788486  
C179     C      0.401700000000     0.079860000000     0.950590000000     0.00811105 
C180     C      0.368640000000     0.986080000000     0.880520000000     0.00725874 
C181     C      0.401480000000     0.794590000000     0.906350000000    -0.076688   
C182     C      0.368820000000     0.771340000000     0.924790000000    -0.0767666  
C183     C      0.333620000000     0.795090000000     0.913770000000     0.00655085 
C184     C      0.436680000000     0.770850000000     0.917370000000     0.00648901 
C185     C      0.117400000000     0.031260000000     0.926030000000    -0.0784154  
C186     C      0.152950000000     0.034710000000     0.905150000000    -0.07907    
C187     C      0.182300000000     0.007130000000     0.925180000000     0.00829837 
C188     C      0.088060000000     0.058850000000     0.906000000000     0.00779084 
C189     C      0.374820000000     0.037990000000     0.683800000000    -0.0801785  
C190     C      0.395460000000     0.027990000000     0.647340000000    -0.0795623  
C191     C      0.434510000000     0.044340000000     0.649740000000     0.00606621 
C192     C      0.335780000000     0.021630000000     0.681410000000     0.00664011 
C193     C      0.975330000000     0.563810000000     0.096190000000     0.400465   
C194     C      0.968680000000     0.250280000000     0.476490000000     0.401397   
C195     C      0.956930000000     0.195070000000     0.111840000000     0.400702   
C196     C      0.957590000000     0.623160000000     0.464600000000     0.403294   
C197     C      0.541370000000     0.580670000000     0.452370000000     0.411459   
C198     C      0.541190000000     0.241680000000     0.120010000000     0.410168   
C199     C      0.571370000000     0.569250000000     0.077540000000     0.40795    
C200     C      0.558100000000     0.264520000000     0.491370000000     0.409421   
C201     C      0.794960000000     0.502160000000     0.234950000000     0.400522   
C202     C      0.801620000000     0.315670000000     0.354650000000     0.401283   
C203     C      0.812730000000     0.442790000000     0.366530000000     0.403271   
C204     C      0.813370000000     0.370890000000     0.219310000000     0.400824   
C205     C      0.729110000000     0.324280000000     0.211150000000     0.410056   
C206     C      0.728970000000     0.485300000000     0.378800000000     0.411685   
C207     C      0.698920000000     0.496710000000     0.253620000000     0.407895   
C208     C      0.712200000000     0.301460000000     0.339780000000     0.409403   
C209     C      0.651500000000     0.279800000000     0.178240000000    -0.078764   
C210     C      0.618790000000     0.286170000000     0.152910000000    -0.0787607  
C211     C      0.585830000000     0.262120000000     0.169400000000     0.00782796 
C212     C      0.684460000000     0.303850000000     0.161760000000     0.00786825 
C213     C      0.627980000000     0.280190000000     0.435910000000    -0.0788062  
C214     C      0.642320000000     0.285790000000     0.395240000000    -0.0788555  
C215     C      0.678110000000     0.260810000000     0.390120000000     0.0108737  
C216     C      0.592180000000     0.305180000000     0.441030000000     0.0107991  
C217     C      0.650140000000     0.537720000000     0.180090000000    -0.0787821  
C218     C      0.620160000000     0.528240000000     0.151080000000    -0.0787412  
C219     C      0.627480000000     0.552210000000     0.113090000000     0.00898041 
C220     C      0.642820000000     0.513760000000     0.218080000000     0.00900453 
C221     C      0.871360000000     0.302350000000     0.164540000000    -0.0785885  
C222     C      0.898940000000     0.263620000000     0.166610000000    -0.078666   
C223     C      0.901320000000     0.237360000000     0.129110000000     0.00724585 
C224     C      0.868980000000     0.328610000000     0.202030000000     0.00723431 
C225     C      0.871600000000     0.513480000000     0.417360000000    -0.0785028  
C226     C      0.898740000000     0.552460000000     0.413750000000    -0.0786333  
C227     C      0.901700000000     0.579860000000     0.450590000000     0.00804077 
C228     C      0.868640000000     0.486080000000     0.380520000000     0.00793787 
C229     C      0.901480000000     0.294590000000     0.406350000000    -0.0766727  
C230     C      0.868820000000     0.271340000000     0.424790000000    -0.0767961  
C231     C      0.833630000000     0.295080000000     0.413770000000     0.00658804 
C232     C      0.936680000000     0.270850000000     0.417370000000     0.00647221 
C233     C      0.617410000000     0.531260000000     0.426030000000    -0.0788197  
C234     C      0.652950000000     0.534710000000     0.405150000000    -0.0788378  
C235     C      0.682300000000     0.507130000000     0.425180000000     0.00792526 
C236     C      0.588060000000     0.558840000000     0.406000000000     0.00792173 
C237     C      0.874820000000     0.537990000000     0.183800000000    -0.0799769  
C238     C      0.895460000000     0.527990000000     0.147340000000    -0.0799974  
C239     C      0.934510000000     0.544340000000     0.149730000000     0.00626926 
C240     C      0.835780000000     0.521630000000     0.181410000000     0.00623286 
C241     C      0.975330000000     0.563810000000     0.596190000000     0.400451   
C242     C      0.968680000000     0.250280000000     0.976490000000     0.40116    
C243     C      0.956930000000     0.195070000000     0.611840000000     0.400695   
C244     C      0.957590000000     0.623160000000     0.964600000000     0.403301   
C245     C      0.541370000000     0.580670000000     0.952370000000     0.411464   
C246     C      0.541190000000     0.241680000000     0.620010000000     0.410162   
C247     C      0.571370000000     0.569250000000     0.577540000000     0.407933   
C248     C      0.558100000000     0.264520000000     0.991370000000     0.409181   
C249     C      0.794960000000     0.502160000000     0.734950000000     0.400202   
C250     C      0.801620000000     0.315670000000     0.854650000000     0.401269   
C251     C      0.812730000000     0.442790000000     0.866530000000     0.403268   
C252     C      0.813370000000     0.370890000000     0.719310000000     0.400823   
C253     C      0.729110000000     0.324280000000     0.711150000000     0.410052   
C254     C      0.728970000000     0.485300000000     0.878800000000     0.411682   
C255     C      0.698920000000     0.496710000000     0.753620000000     0.407893   
C256     C      0.712200000000     0.301460000000     0.839790000000     0.409385   
C257     C      0.651500000000     0.279800000000     0.678240000000    -0.0787634  
C258     C      0.618790000000     0.286170000000     0.652910000000    -0.0787545  
C259     C      0.585830000000     0.262120000000     0.669400000000     0.00782303 
C260     C      0.684460000000     0.303850000000     0.661760000000     0.00787138 
C261     C      0.627980000000     0.280190000000     0.935910000000    -0.0787919  
C262     C      0.642320000000     0.285790000000     0.895240000000    -0.0788612  
C263     C      0.678110000000     0.260810000000     0.890120000000     0.0108707  
C264     C      0.592180000000     0.305180000000     0.941030000000     0.0107704  
C265     C      0.650140000000     0.537720000000     0.680090000000    -0.0787804  
C266     C      0.620160000000     0.528240000000     0.651080000000    -0.0787422  
C267     C      0.627480000000     0.552210000000     0.613090000000     0.0089783  
C268     C      0.642820000000     0.513760000000     0.718080000000     0.00900404 
C269     C      0.871360000000     0.302350000000     0.664540000000    -0.0785818  
C270     C      0.898940000000     0.263620000000     0.666610000000    -0.078673   
C271     C      0.901320000000     0.237360000000     0.629110000000     0.00725129 
C272     C      0.868980000000     0.328610000000     0.702030000000     0.00723021 
C273     C      0.871600000000     0.513480000000     0.917360000000    -0.0784931  
C274     C      0.898740000000     0.552460000000     0.913750000000    -0.078644   
C275     C      0.901700000000     0.579860000000     0.950590000000     0.00804956 
C276     C      0.868640000000     0.486080000000     0.880520000000     0.00792546 
C277     C      0.901480000000     0.294590000000     0.906350000000    -0.0766815  
C278     C      0.868820000000     0.271340000000     0.924790000000    -0.0767819  
C279     C      0.833630000000     0.295080000000     0.913770000000     0.00656858 
C280     C      0.936680000000     0.270850000000     0.917370000000     0.00648114 
C281     C      0.617410000000     0.531260000000     0.926030000000    -0.0788097  
C282     C      0.652950000000     0.534710000000     0.905150000000    -0.0788475  
C283     C      0.682300000000     0.507130000000     0.925180000000     0.00793107 
C284     C      0.588060000000     0.558840000000     0.906000000000     0.00791292 
C285     C      0.874820000000     0.537990000000     0.683800000000    -0.0799822  
C286     C      0.895460000000     0.527990000000     0.647340000000    -0.0799495  
C287     C      0.934510000000     0.544340000000     0.649740000000     0.00616757 
C288     C      0.835780000000     0.521630000000     0.681410000000     0.00622439 
C289     C      0.975330000000     0.063810000000     0.096190000000     0.400382   
C290     C      0.968680000000     0.750280000000     0.476490000000     0.401398   
C291     C      0.956930000000     0.695070000000     0.111840000000     0.400716   
C292     C      0.957590000000     0.123160000000     0.464600000000     0.403306   
C293     C      0.541370000000     0.080670000000     0.452370000000     0.411474   
C294     C      0.541190000000     0.741690000000     0.120010000000     0.410201   
C295     C      0.571370000000     0.069250000000     0.077540000000     0.407979   
C296     C      0.558100000000     0.764520000000     0.491370000000     0.409424   
C297     C      0.794960000000     0.002160000000     0.234950000000     0.400833   
C298     C      0.801620000000     0.815670000000     0.354650000000     0.401373   
C299     C      0.812730000000     0.942780000000     0.366530000000     0.403209   
C300     C      0.813370000000     0.870900000000     0.219310000000     0.400829   
C301     C      0.729110000000     0.824280000000     0.211150000000     0.410056   
C302     C      0.728970000000     0.985300000000     0.378800000000     0.411037   
C303     C      0.698920000000     0.996710000000     0.253620000000     0.407386   
C304     C      0.712200000000     0.801460000000     0.339780000000     0.409403   
C305     C      0.651500000000     0.779800000000     0.178240000000    -0.0787473  
C306     C      0.618790000000     0.786170000000     0.152910000000    -0.0787736  
C307     C      0.585830000000     0.762120000000     0.169400000000     0.00785417 
C308     C      0.684460000000     0.803860000000     0.161760000000     0.00783612 
C309     C      0.627980000000     0.780190000000     0.435910000000    -0.0788263  
C310     C      0.642320000000     0.785790000000     0.395240000000    -0.0788465  
C311     C      0.678110000000     0.760810000000     0.390120000000     0.0108706  
C312     C      0.592180000000     0.805170000000     0.441030000000     0.0108313  
C313     C      0.650140000000     0.037720000000     0.180090000000    -0.0789704  
C314     C      0.620160000000     0.028240000000     0.151080000000    -0.0783515  
C315     C      0.627480000000     0.052210000000     0.113090000000     0.0088827  
C316     C      0.642820000000     0.013760000000     0.218080000000     0.00937445 
C317     C      0.871360000000     0.802350000000     0.164540000000    -0.0786039  
C318     C      0.898940000000     0.763620000000     0.166610000000    -0.0786633  
C319     C      0.901320000000     0.737360000000     0.129110000000     0.00724631 
C320     C      0.868980000000     0.828610000000     0.202030000000     0.00720705 
C321     C      0.871600000000     0.013480000000     0.417360000000    -0.0777807  
C322     C      0.898740000000     0.052460000000     0.413750000000    -0.0788592  
C323     C      0.901700000000     0.079860000000     0.450590000000     0.00812451 
C324     C      0.868640000000     0.986080000000     0.380520000000     0.00725566 
C325     C      0.901480000000     0.794590000000     0.406350000000    -0.0766724  
C326     C      0.868820000000     0.771340000000     0.424790000000    -0.0767885  
C327     C      0.833630000000     0.795090000000     0.413770000000     0.00657116 
C328     C      0.936680000000     0.770850000000     0.417370000000     0.00646975 
C329     C      0.617410000000     0.031260000000     0.426030000000    -0.0784106  
C330     C      0.652950000000     0.034710000000     0.405150000000    -0.0790331  
C331     C      0.682300000000     0.007130000000     0.425180000000     0.00828164 
C332     C      0.588060000000     0.058850000000     0.406000000000     0.00778451 
C333     C      0.874820000000     0.037990000000     0.183800000000    -0.0801788  
C334     C      0.895460000000     0.027990000000     0.147340000000    -0.0796004  
C335     C      0.934510000000     0.044340000000     0.149730000000     0.00616134 
C336     C      0.835780000000     0.021630000000     0.181410000000     0.00662561 
C337     C      0.975330000000     0.063810000000     0.596190000000     0.400367   
C338     C      0.968680000000     0.750280000000     0.976490000000     0.401162   
C339     C      0.956930000000     0.695070000000     0.611840000000     0.40071    
C340     C      0.957590000000     0.123160000000     0.964600000000     0.403314   
C341     C      0.541370000000     0.080670000000     0.952370000000     0.411479   
C342     C      0.541190000000     0.741690000000     0.620010000000     0.410195   
C343     C      0.571370000000     0.069250000000     0.577540000000     0.407962   
C344     C      0.558100000000     0.764520000000     0.991370000000     0.409184   
C345     C      0.794960000000     0.002160000000     0.734950000000     0.400513   
C346     C      0.801620000000     0.815670000000     0.854650000000     0.401359   
C347     C      0.812730000000     0.942780000000     0.866530000000     0.403206   
C348     C      0.813370000000     0.870900000000     0.719310000000     0.400828   
C349     C      0.729110000000     0.824280000000     0.711150000000     0.410052   
C350     C      0.728970000000     0.985300000000     0.878800000000     0.411034   
C351     C      0.698920000000     0.996710000000     0.753620000000     0.407384   
C352     C      0.712200000000     0.801460000000     0.839790000000     0.409385   
C353     C      0.651500000000     0.779800000000     0.678240000000    -0.0787467  
C354     C      0.618790000000     0.786170000000     0.652910000000    -0.0787673  
C355     C      0.585830000000     0.762120000000     0.669400000000     0.00784923 
C356     C      0.684460000000     0.803860000000     0.661760000000     0.00783925 
C357     C      0.627980000000     0.780190000000     0.935910000000    -0.078812   
C358     C      0.642320000000     0.785790000000     0.895240000000    -0.0788523  
C359     C      0.678110000000     0.760810000000     0.890120000000     0.0108676  
C360     C      0.592180000000     0.805170000000     0.941030000000     0.0108026  
C361     C      0.650140000000     0.037720000000     0.680090000000    -0.0789688  
C362     C      0.620160000000     0.028240000000     0.651080000000    -0.0783524  
C363     C      0.627480000000     0.052210000000     0.613090000000     0.00888055 
C364     C      0.642820000000     0.013760000000     0.718080000000     0.00937407 
C365     C      0.871360000000     0.802350000000     0.664540000000    -0.0785972  
C366     C      0.898940000000     0.763620000000     0.666610000000    -0.0786703  
C367     C      0.901320000000     0.737360000000     0.629110000000     0.00725176 
C368     C      0.868980000000     0.828610000000     0.702030000000     0.00720294 
C369     C      0.871600000000     0.013480000000     0.917360000000    -0.077771   
C370     C      0.898740000000     0.052460000000     0.913750000000    -0.0788699  
C371     C      0.901700000000     0.079860000000     0.950590000000     0.00813329 
C372     C      0.868640000000     0.986080000000     0.880520000000     0.00724323 
C373     C      0.901480000000     0.794590000000     0.906350000000    -0.0766812  
C374     C      0.868820000000     0.771340000000     0.924790000000    -0.0767743  
C375     C      0.833630000000     0.795090000000     0.913770000000     0.00655168 
C376     C      0.936680000000     0.770850000000     0.917370000000     0.00647867 
C377     C      0.617410000000     0.031260000000     0.926030000000    -0.0784006  
C378     C      0.652950000000     0.034710000000     0.905150000000    -0.0790428  
C379     C      0.682300000000     0.007130000000     0.925180000000     0.00828742 
C380     C      0.588060000000     0.058850000000     0.906000000000     0.00777572 
C381     C      0.874820000000     0.037990000000     0.683800000000    -0.0801842  
C382     C      0.895460000000     0.027990000000     0.647340000000    -0.0795524  
C383     C      0.934510000000     0.044340000000     0.649740000000     0.00605958 
C384     C      0.835780000000     0.021630000000     0.681410000000     0.00661727 
Co1      Co     0.509630000000     0.597140000000     0.526180000000     0.846526   
Co2      Co     0.005440000000     0.222920000000     0.047530000000     0.842358   
Co3      Co     0.523780000000     0.646870000000     0.093070000000     0.851643   
Co4      Co     0.023440000000     0.674810000000     0.480520000000     0.851924   
Co5      Co     0.246520000000     0.419090000000     0.238080000000     0.851697   
Co6      Co     0.246870000000     0.391150000000     0.350630000000     0.852634   
Co7      Co     0.260680000000     0.468830000000     0.304970000000     0.846556   
Co8      Co     0.264860000000     0.343040000000     0.283620000000     0.843136   
Co9      Co     0.509630000000     0.597140000000     0.026180000000     0.846812   
Co10     Co     0.005440000000     0.222920000000     0.547530000000     0.842299   
Co11     Co     0.523780000000     0.646870000000     0.593070000000     0.851661   
Co12     Co     0.023440000000     0.674810000000     0.980520000000     0.851692   
Co13     Co     0.246520000000     0.419090000000     0.738080000000     0.851635   
Co14     Co     0.246870000000     0.391150000000     0.850630000000     0.852643   
Co15     Co     0.260680000000     0.468830000000     0.804970000000     0.846567   
Co16     Co     0.264860000000     0.343040000000     0.783620000000     0.843128   
Co17     Co     0.509630000000     0.097130000000     0.526180000000     0.846654   
Co18     Co     0.005440000000     0.722930000000     0.047530000000     0.842489   
Co19     Co     0.523780000000     0.146870000000     0.093070000000     0.851657   
Co20     Co     0.023440000000     0.174820000000     0.480520000000     0.851961   
Co21     Co     0.246520000000     0.919090000000     0.238080000000     0.851678   
Co22     Co     0.246870000000     0.891150000000     0.350630000000     0.852587   
Co23     Co     0.260680000000     0.968830000000     0.304970000000     0.846023   
Co24     Co     0.264860000000     0.843040000000     0.283620000000     0.843129   
Co25     Co     0.509630000000     0.097130000000     0.026180000000     0.846939   
Co26     Co     0.005440000000     0.722930000000     0.547530000000     0.84243    
Co27     Co     0.523780000000     0.146870000000     0.593070000000     0.851675   
Co28     Co     0.023440000000     0.174820000000     0.980520000000     0.851729   
Co29     Co     0.246520000000     0.919090000000     0.738080000000     0.851616   
Co30     Co     0.246870000000     0.891150000000     0.850630000000     0.852595   
Co31     Co     0.260680000000     0.968830000000     0.804970000000     0.846033   
Co32     Co     0.264860000000     0.843040000000     0.783620000000     0.843121   
Co33     Co     0.009630000000     0.597140000000     0.526180000000     0.845636   
Co34     Co     0.505440000000     0.222920000000     0.047530000000     0.843248   
Co35     Co     0.023780000000     0.646870000000     0.093070000000     0.85095    
Co36     Co     0.523440000000     0.674810000000     0.480520000000     0.852652   
Co37     Co     0.746520000000     0.419090000000     0.238080000000     0.851692   
Co38     Co     0.746870000000     0.391150000000     0.350630000000     0.852687   
Co39     Co     0.760680000000     0.468830000000     0.304970000000     0.846629   
Co40     Co     0.764860000000     0.343040000000     0.283620000000     0.843131   
Co41     Co     0.009630000000     0.597140000000     0.026180000000     0.845921   
Co42     Co     0.505440000000     0.222920000000     0.547530000000     0.843189   
Co43     Co     0.023780000000     0.646870000000     0.593070000000     0.850969   
Co44     Co     0.523440000000     0.674810000000     0.980520000000     0.85242    
Co45     Co     0.746520000000     0.419090000000     0.738080000000     0.85163    
Co46     Co     0.746870000000     0.391150000000     0.850630000000     0.852695   
Co47     Co     0.760680000000     0.468830000000     0.804970000000     0.84664    
Co48     Co     0.764860000000     0.343040000000     0.783620000000     0.843123   
Co49     Co     0.009630000000     0.097130000000     0.526180000000     0.845763   
Co50     Co     0.505440000000     0.722930000000     0.047530000000     0.843378   
Co51     Co     0.023780000000     0.146870000000     0.093070000000     0.850965   
Co52     Co     0.523440000000     0.174820000000     0.480520000000     0.852689   
Co53     Co     0.746520000000     0.919090000000     0.238080000000     0.851672   
Co54     Co     0.746870000000     0.891150000000     0.350630000000     0.852639   
Co55     Co     0.760680000000     0.968830000000     0.304970000000     0.846096   
Co56     Co     0.764860000000     0.843040000000     0.283620000000     0.843124   
Co57     Co     0.009630000000     0.097130000000     0.026180000000     0.846049   
Co58     Co     0.505440000000     0.722930000000     0.547530000000     0.843319   
Co59     Co     0.023780000000     0.146870000000     0.593070000000     0.850983   
Co60     Co     0.523440000000     0.174820000000     0.980520000000     0.852457   
Co61     Co     0.746520000000     0.919090000000     0.738080000000     0.851611   
Co62     Co     0.746870000000     0.891150000000     0.850630000000     0.852648   
Co63     Co     0.760680000000     0.968830000000     0.804970000000     0.846106   
Co64     Co     0.764860000000     0.843040000000     0.783620000000     0.843116   
H1       H      0.179480000000     0.341490000000     0.159260000000     0.0426474  
H2       H      0.189840000000     0.289510000000     0.133160000000     0.0292836  
H3       H      0.090810000000     0.224480000000     0.171890000000     0.042623   
H4       H      0.080450000000     0.276460000000     0.198000000000     0.0291821  
H5       H      0.124400000000     0.271720000000     0.124370000000     0.0497542  
H6       H      0.113160000000     0.323610000000     0.149820000000     0.0466597  
H7       H      0.046540000000     0.306230000000     0.144040000000     0.102913   
H8       H      0.145900000000     0.294260000000     0.206780000000     0.0497092  
H9       H      0.157130000000     0.242360000000     0.181330000000     0.0466857  
H10      H      0.223760000000     0.259740000000     0.187110000000     0.102997   
H11      H      0.072430000000     0.291000000000     0.420590000000     0.0407576  
H12      H      0.096080000000     0.342370000000     0.434770000000     0.0268614  
H13      H      0.197870000000     0.274990000000     0.410570000000     0.0408615  
H14      H      0.174210000000     0.223610000000     0.396380000000     0.0268988  
H15      H      0.145940000000     0.323010000000     0.388920000000     0.0564883  
H16      H      0.122640000000     0.271410000000     0.374850000000     0.0489277  
H17      H      0.188220000000     0.237580000000     0.333000000000     0.102162   
H18      H      0.124350000000     0.242970000000     0.442240000000     0.0565106  
H19      H      0.147650000000     0.294570000000     0.456310000000     0.0489801  
H20      H      0.082070000000     0.328400000000     0.498160000000     0.102086   
H21      H      0.140870000000     0.475930000000     0.213540000000     0.0404508  
H22      H      0.116770000000     0.526300000000     0.229110000000     0.0271427  
H23      H      0.129420000000     0.590040000000     0.117630000000     0.040518   
H24      H      0.153530000000     0.539670000000     0.102060000000     0.0272507  
H25      H      0.094270000000     0.540850000000     0.162520000000     0.0552567  
H26      H      0.117950000000     0.490500000000     0.146270000000     0.0486952  
H27      H      0.103070000000     0.511580000000     0.068810000000     0.100541   
H28      H      0.176020000000     0.525120000000     0.168650000000     0.0553556  
H29      H      0.152350000000     0.575470000000     0.184900000000     0.0487072  
H30      H      0.167230000000     0.554380000000     0.262360000000     0.100563   
H31      H      0.395560000000     0.343760000000     0.208420000000     0.0292412  
H32      H      0.361560000000     0.304630000000     0.225270000000     0.0459108  
H33      H      0.374730000000     0.222210000000     0.122730000000     0.0292773  
H34      H      0.408740000000     0.261340000000     0.105870000000     0.0459447  
H35      H      0.391360000000     0.239310000000     0.189590000000     0.046487   
H36      H      0.425620000000     0.278350000000     0.173350000000     0.0512799  
H37      H      0.422820000000     0.176360000000     0.155150000000     0.0999858  
H38      H      0.378940000000     0.326660000000     0.141560000000     0.0465084  
H39      H      0.344680000000     0.287620000000     0.157800000000     0.0513042  
H40      H      0.347480000000     0.389600000000     0.176000000000     0.100027   
H41      H      0.395230000000     0.471230000000     0.373690000000     0.0287235  
H42      H      0.360290000000     0.509150000000     0.357010000000     0.0453739  
H43      H      0.375110000000     0.594710000000     0.457420000000     0.0287086  
H44      H      0.410040000000     0.556790000000     0.474110000000     0.0453487  
H45      H      0.390410000000     0.575930000000     0.390470000000     0.046761   
H46      H      0.425390000000     0.537920000000     0.406640000000     0.0517513  
H47      H      0.421440000000     0.640660000000     0.422860000000     0.1001     
H48      H      0.379930000000     0.490020000000     0.440640000000     0.0467537  
H49      H      0.344940000000     0.528030000000     0.424470000000     0.0517131  
H50      H      0.348900000000     0.425280000000     0.408250000000     0.100132   
H51      H      0.458870000000     0.286440000000     0.400890000000     0.0361942  
H52      H      0.435730000000     0.233710000000     0.409690000000     0.0417959  
H53      H      0.311430000000     0.279490000000     0.430260000000     0.0361615  
H54      H      0.334580000000     0.332230000000     0.421460000000     0.0417786  
H55      H      0.371380000000     0.272780000000     0.456080000000     0.0454844  
H56      H      0.367690000000     0.234440000000     0.416450000000     0.0454349  
H57      H      0.340150000000     0.264970000000     0.357870000000     0.102117   
H58      H      0.398930000000     0.293150000000     0.375050000000     0.0454448  
H59      H      0.402620000000     0.331490000000     0.414690000000     0.0454104  
H60      H      0.430150000000     0.300970000000     0.473270000000     0.102125   
H61      H      0.085140000000     0.545770000000     0.376600000000     0.0289387  
H62      H      0.095290000000     0.595990000000     0.405150000000     0.0409422  
H63      H      0.185220000000     0.520210000000     0.454580000000     0.0290146  
H64      H      0.175060000000     0.469990000000     0.426030000000     0.0409745  
H65      H      0.161050000000     0.571530000000     0.403490000000     0.0464361  
H66      H      0.149750000000     0.521370000000     0.375830000000     0.0495039  
H67      H      0.226300000000     0.548090000000     0.406060000000     0.102673   
H68      H      0.109300000000     0.494440000000     0.427690000000     0.0464062  
H69      H      0.120610000000     0.544610000000     0.455350000000     0.0495133  
H70      H      0.044060000000     0.517870000000     0.425110000000     0.102525   
H71      H      0.334800000000     0.484210000000     0.174740000000     0.043162   
H72      H      0.321940000000     0.540670000000     0.158400000000     0.0334423  
H73      H      0.435490000000     0.581770000000     0.156400000000     0.0431597  
H74      H      0.448340000000     0.525310000000     0.172740000000     0.0334214  
H75      H      0.382160000000     0.545780000000     0.123300000000     0.0475363  
H76      H      0.394970000000     0.490270000000     0.141810000000     0.0442256  
H77      H      0.444760000000     0.504940000000     0.099120000000     0.103017   
H78      H      0.388130000000     0.520190000000     0.207840000000     0.0474901  
H79      H      0.375320000000     0.575700000000     0.189330000000     0.0442241  
H80      H      0.325520000000     0.561040000000     0.232010000000     0.103044   
H81      H      0.179480000000     0.341490000000     0.659260000000     0.0426365  
H82      H      0.189840000000     0.289510000000     0.633160000000     0.029262   
H83      H      0.090810000000     0.224480000000     0.671890000000     0.0426229  
H84      H      0.080450000000     0.276460000000     0.698000000000     0.0291844  
H85      H      0.124400000000     0.271720000000     0.624370000000     0.0497341  
H86      H      0.113160000000     0.323610000000     0.649820000000     0.0466485  
H87      H      0.046540000000     0.306230000000     0.644040000000     0.102905   
H88      H      0.145900000000     0.294260000000     0.706780000000     0.0497087  
H89      H      0.157130000000     0.242360000000     0.681340000000     0.0466793  
H90      H      0.223760000000     0.259740000000     0.687110000000     0.102991   
H91      H      0.072430000000     0.291000000000     0.920590000000     0.0407653  
H92      H      0.096080000000     0.342370000000     0.934780000000     0.0268607  
H93      H      0.197870000000     0.274990000000     0.910570000000     0.0408458  
H94      H      0.174210000000     0.223610000000     0.896380000000     0.0268957  
H95      H      0.145940000000     0.323010000000     0.888920000000     0.0564875  
H96      H      0.122640000000     0.271410000000     0.874850000000     0.0489319  
H97      H      0.188220000000     0.237580000000     0.832990000000     0.102131   
H98      H      0.124350000000     0.242970000000     0.942240000000     0.0564943  
H99      H      0.147650000000     0.294570000000     0.956310000000     0.0489521  
H100     H      0.082070000000     0.328400000000     0.998160000000     0.102022   
H101     H      0.140870000000     0.475930000000     0.713540000000     0.0404503  
H102     H      0.116770000000     0.526300000000     0.729110000000     0.0271442  
H103     H      0.129420000000     0.590040000000     0.617630000000     0.0405054  
H104     H      0.153530000000     0.539670000000     0.602060000000     0.0272258  
H105     H      0.094270000000     0.540850000000     0.662520000000     0.0552568  
H106     H      0.117950000000     0.490500000000     0.646270000000     0.0486875  
H107     H      0.103070000000     0.511580000000     0.568810000000     0.100504   
H108     H      0.176020000000     0.525120000000     0.668650000000     0.0553477  
H109     H      0.152350000000     0.575470000000     0.684900000000     0.0487042  
H110     H      0.167230000000     0.554380000000     0.762360000000     0.100564   
H111     H      0.395560000000     0.343760000000     0.708420000000     0.0292418  
H112     H      0.361560000000     0.304630000000     0.725270000000     0.045912   
H113     H      0.374730000000     0.222210000000     0.622730000000     0.0292569  
H114     H      0.408740000000     0.261340000000     0.605870000000     0.0459235  
H115     H      0.391360000000     0.239310000000     0.689590000000     0.0464884  
H116     H      0.425620000000     0.278350000000     0.673350000000     0.0512807  
H117     H      0.422820000000     0.176360000000     0.655150000000     0.0999838  
H118     H      0.378940000000     0.326660000000     0.641560000000     0.0464926  
H119     H      0.344680000000     0.287620000000     0.657800000000     0.0512919  
H120     H      0.347480000000     0.389600000000     0.676000000000     0.10002    
H121     H      0.395230000000     0.471230000000     0.873700000000     0.0287263  
H122     H      0.360290000000     0.509150000000     0.857010000000     0.0453792  
H123     H      0.375110000000     0.594710000000     0.957420000000     0.0286823  
H124     H      0.410040000000     0.556790000000     0.974110000000     0.0453151  
H125     H      0.390410000000     0.575930000000     0.890470000000     0.0467636  
H126     H      0.425390000000     0.537920000000     0.906640000000     0.0517503  
H127     H      0.421440000000     0.640660000000     0.922860000000     0.100097   
H128     H      0.379930000000     0.490020000000     0.940640000000     0.0467306  
H129     H      0.344940000000     0.528030000000     0.924470000000     0.0516978  
H130     H      0.348900000000     0.425280000000     0.908250000000     0.10012    
H131     H      0.458870000000     0.286440000000     0.900880000000     0.0361843  
H132     H      0.435730000000     0.233710000000     0.909690000000     0.0417939  
H133     H      0.311430000000     0.279490000000     0.930260000000     0.0361484  
H134     H      0.334580000000     0.332230000000     0.921450000000     0.0417776  
H135     H      0.371380000000     0.272780000000     0.956080000000     0.045455   
H136     H      0.367690000000     0.234440000000     0.916450000000     0.0454271  
H137     H      0.340150000000     0.264970000000     0.857860000000     0.102083   
H138     H      0.398930000000     0.293150000000     0.875050000000     0.0454488  
H139     H      0.402620000000     0.331490000000     0.914690000000     0.0454038  
H140     H      0.430150000000     0.300970000000     0.973270000000     0.102076   
H141     H      0.085140000000     0.545770000000     0.876600000000     0.0289421  
H142     H      0.095290000000     0.595990000000     0.905150000000     0.0409405  
H143     H      0.185220000000     0.520210000000     0.954580000000     0.0289833  
H144     H      0.175060000000     0.469990000000     0.926030000000     0.0409597  
H145     H      0.161050000000     0.571530000000     0.903490000000     0.0464322  
H146     H      0.149750000000     0.521370000000     0.875830000000     0.0495071  
H147     H      0.226300000000     0.548090000000     0.906060000000     0.102663   
H148     H      0.109300000000     0.494440000000     0.927690000000     0.0463901  
H149     H      0.120610000000     0.544610000000     0.955350000000     0.0494799  
H150     H      0.044060000000     0.517870000000     0.925110000000     0.102514   
H151     H      0.334800000000     0.484210000000     0.674740000000     0.0431624  
H152     H      0.321940000000     0.540670000000     0.658400000000     0.0334333  
H153     H      0.435490000000     0.581770000000     0.656400000000     0.0431878  
H154     H      0.448340000000     0.525310000000     0.672740000000     0.0334501  
H155     H      0.382160000000     0.545780000000     0.623300000000     0.0475077  
H156     H      0.394970000000     0.490270000000     0.641810000000     0.044205   
H157     H      0.444760000000     0.504940000000     0.599120000000     0.102991   
H158     H      0.388130000000     0.520190000000     0.707840000000     0.047492   
H159     H      0.375320000000     0.575700000000     0.689340000000     0.0442194  
H160     H      0.325520000000     0.561040000000     0.732010000000     0.103032   
H161     H      0.179480000000     0.841490000000     0.159260000000     0.0426378  
H162     H      0.189840000000     0.789510000000     0.133160000000     0.0292848  
H163     H      0.090810000000     0.724480000000     0.171890000000     0.0426174  
H164     H      0.080450000000     0.776460000000     0.198000000000     0.0291663  
H165     H      0.124400000000     0.771720000000     0.124370000000     0.0497501  
H166     H      0.113160000000     0.823610000000     0.149820000000     0.0466433  
H167     H      0.046540000000     0.806230000000     0.144040000000     0.10285    
H168     H      0.145900000000     0.794260000000     0.206780000000     0.0496989  
H169     H      0.157130000000     0.742360000000     0.181330000000     0.0466812  
H170     H      0.223760000000     0.759740000000     0.187110000000     0.102995   
H171     H      0.072430000000     0.790990000000     0.420590000000     0.0407404  
H172     H      0.096080000000     0.842370000000     0.434770000000     0.0268296  
H173     H      0.197870000000     0.774990000000     0.410570000000     0.0408588  
H174     H      0.174210000000     0.723610000000     0.396380000000     0.0268979  
H175     H      0.145940000000     0.823010000000     0.388920000000     0.0564725  
H176     H      0.122640000000     0.771410000000     0.374850000000     0.0489191  
H177     H      0.188220000000     0.737580000000     0.333000000000     0.102159   
H178     H      0.124350000000     0.742970000000     0.442240000000     0.0565119  
H179     H      0.147650000000     0.794570000000     0.456310000000     0.0489744  
H180     H      0.082070000000     0.828400000000     0.498160000000     0.102061   
H181     H      0.140870000000     0.975930000000     0.213540000000     0.0402182  
H182     H      0.116770000000     0.026300000000     0.229110000000     0.027111   
H183     H      0.129420000000     0.090040000000     0.117630000000     0.0405409  
H184     H      0.153530000000     0.039670000000     0.102060000000     0.0273168  
H185     H      0.094270000000     0.040850000000     0.162520000000     0.0552076  
H186     H      0.117950000000     0.990500000000     0.146270000000     0.0484175  
H187     H      0.103070000000     0.011580000000     0.068810000000     0.100603   
H188     H      0.176020000000     0.025120000000     0.168650000000     0.0554675  
H189     H      0.152350000000     0.075470000000     0.184900000000     0.0487467  
H190     H      0.167230000000     0.054380000000     0.262360000000     0.100525   
H191     H      0.395560000000     0.843760000000     0.208420000000     0.0292253  
H192     H      0.361560000000     0.804630000000     0.225270000000     0.0459138  
H193     H      0.374730000000     0.722210000000     0.122730000000     0.0292726  
H194     H      0.408740000000     0.761340000000     0.105870000000     0.0459343  
H195     H      0.391360000000     0.739310000000     0.189590000000     0.046485   
H196     H      0.425620000000     0.778350000000     0.173350000000     0.0512691  
H197     H      0.422820000000     0.676360000000     0.155150000000     0.0999849  
H198     H      0.378940000000     0.826650000000     0.141560000000     0.0465032  
H199     H      0.344680000000     0.787620000000     0.157800000000     0.0513031  
H200     H      0.347480000000     0.889600000000     0.176000000000     0.100039   
H201     H      0.395230000000     0.971230000000     0.373690000000     0.0287862  
H202     H      0.360290000000     0.009150000000     0.357010000000     0.0456834  
H203     H      0.375110000000     0.094710000000     0.457420000000     0.0287048  
H204     H      0.410040000000     0.056790000000     0.474110000000     0.0453709  
H205     H      0.390410000000     0.075930000000     0.390470000000     0.0468241  
H206     H      0.425390000000     0.037920000000     0.406640000000     0.0518585  
H207     H      0.421440000000     0.140660000000     0.422860000000     0.100105   
H208     H      0.379930000000     0.990020000000     0.440640000000     0.0464231  
H209     H      0.344940000000     0.028030000000     0.424470000000     0.0516265  
H210     H      0.348900000000     0.925280000000     0.408250000000     0.100092   
H211     H      0.458870000000     0.786440000000     0.400890000000     0.0361808  
H212     H      0.435730000000     0.733710000000     0.409690000000     0.0417941  
H213     H      0.311430000000     0.779490000000     0.430260000000     0.0361641  
H214     H      0.334580000000     0.832230000000     0.421460000000     0.0417732  
H215     H      0.371380000000     0.772780000000     0.456080000000     0.0454769  
H216     H      0.367690000000     0.734440000000     0.416450000000     0.0454319  
H217     H      0.340150000000     0.764970000000     0.357870000000     0.102116   
H218     H      0.398930000000     0.793150000000     0.375050000000     0.0454365  
H219     H      0.402620000000     0.831490000000     0.414690000000     0.0453942  
H220     H      0.430150000000     0.800970000000     0.473270000000     0.102111   
H221     H      0.085140000000     0.045770000000     0.376600000000     0.0290124  
H222     H      0.095290000000     0.095990000000     0.405150000000     0.0409734  
H223     H      0.185220000000     0.020210000000     0.454580000000     0.0289906  
H224     H      0.175060000000     0.969990000000     0.426030000000     0.0407441  
H225     H      0.161050000000     0.071530000000     0.403490000000     0.0464786  
H226     H      0.149750000000     0.021370000000     0.375830000000     0.0496161  
H227     H      0.226300000000     0.048090000000     0.406060000000     0.102676   
H228     H      0.109300000000     0.994440000000     0.427690000000     0.0461194  
H229     H      0.120610000000     0.044610000000     0.455350000000     0.0494566  
H230     H      0.044060000000     0.017870000000     0.425110000000     0.102587   
H231     H      0.334800000000     0.984210000000     0.174740000000     0.0429095  
H232     H      0.321940000000     0.040670000000     0.158400000000     0.0334035  
H233     H      0.435490000000     0.081770000000     0.156400000000     0.043185   
H234     H      0.448340000000     0.025310000000     0.172740000000     0.0334945  
H235     H      0.382160000000     0.045780000000     0.123300000000     0.0474872  
H236     H      0.394970000000     0.990270000000     0.141810000000     0.043946   
H237     H      0.444760000000     0.004940000000     0.099120000000     0.103084   
H238     H      0.388130000000     0.020190000000     0.207840000000     0.0475926  
H239     H      0.375320000000     0.075700000000     0.189330000000     0.0442664  
H240     H      0.325520000000     0.061040000000     0.232010000000     0.103061   
H241     H      0.179480000000     0.841490000000     0.659260000000     0.0426269  
H242     H      0.189840000000     0.789510000000     0.633160000000     0.0292632  
H243     H      0.090810000000     0.724480000000     0.671890000000     0.0426173  
H244     H      0.080450000000     0.776460000000     0.698000000000     0.0291687  
H245     H      0.124400000000     0.771720000000     0.624370000000     0.0497299  
H246     H      0.113160000000     0.823610000000     0.649820000000     0.046632   
H247     H      0.046540000000     0.806230000000     0.644040000000     0.102842   
H248     H      0.145900000000     0.794260000000     0.706780000000     0.0496985  
H249     H      0.157130000000     0.742360000000     0.681340000000     0.0466747  
H250     H      0.223760000000     0.759740000000     0.687110000000     0.102988   
H251     H      0.072430000000     0.790990000000     0.920590000000     0.0407481  
H252     H      0.096080000000     0.842370000000     0.934780000000     0.0268289  
H253     H      0.197870000000     0.774990000000     0.910570000000     0.0408431  
H254     H      0.174210000000     0.723610000000     0.896380000000     0.0268948  
H255     H      0.145940000000     0.823010000000     0.888920000000     0.0564717  
H256     H      0.122640000000     0.771410000000     0.874850000000     0.0489232  
H257     H      0.188220000000     0.737580000000     0.832990000000     0.102128   
H258     H      0.124350000000     0.742970000000     0.942240000000     0.0564956  
H259     H      0.147650000000     0.794570000000     0.956310000000     0.0489464  
H260     H      0.082070000000     0.828400000000     0.998160000000     0.101998   
H261     H      0.140870000000     0.975930000000     0.713540000000     0.0402176  
H262     H      0.116770000000     0.026300000000     0.729110000000     0.0271124  
H263     H      0.129420000000     0.090040000000     0.617630000000     0.0405283  
H264     H      0.153530000000     0.039670000000     0.602060000000     0.0272919  
H265     H      0.094270000000     0.040850000000     0.662520000000     0.0552076  
H266     H      0.117950000000     0.990500000000     0.646270000000     0.0484097  
H267     H      0.103070000000     0.011580000000     0.568810000000     0.100565   
H268     H      0.176020000000     0.025120000000     0.668650000000     0.0554596  
H269     H      0.152350000000     0.075470000000     0.684900000000     0.0487438  
H270     H      0.167230000000     0.054380000000     0.762360000000     0.100525   
H271     H      0.395560000000     0.843760000000     0.708420000000     0.0292259  
H272     H      0.361560000000     0.804630000000     0.725270000000     0.045915   
H273     H      0.374730000000     0.722210000000     0.622730000000     0.0292522  
H274     H      0.408740000000     0.761340000000     0.605870000000     0.045913   
H275     H      0.391360000000     0.739310000000     0.689590000000     0.0464865  
H276     H      0.425620000000     0.778350000000     0.673350000000     0.0512698  
H277     H      0.422820000000     0.676360000000     0.655150000000     0.0999829  
H278     H      0.378940000000     0.826650000000     0.641560000000     0.0464875  
H279     H      0.344680000000     0.787620000000     0.657800000000     0.0512908  
H280     H      0.347480000000     0.889600000000     0.676000000000     0.100032   
H281     H      0.395230000000     0.971230000000     0.873700000000     0.028789   
H282     H      0.360290000000     0.009150000000     0.857010000000     0.0456886  
H283     H      0.375110000000     0.094710000000     0.957420000000     0.0286785  
H284     H      0.410040000000     0.056790000000     0.974110000000     0.0453373  
H285     H      0.390410000000     0.075930000000     0.890470000000     0.0468266  
H286     H      0.425390000000     0.037920000000     0.906640000000     0.0518575  
H287     H      0.421440000000     0.140660000000     0.922860000000     0.100103   
H288     H      0.379930000000     0.990020000000     0.940640000000     0.0464     
H289     H      0.344940000000     0.028030000000     0.924470000000     0.0516112  
H290     H      0.348900000000     0.925280000000     0.908250000000     0.10008    
H291     H      0.458870000000     0.786440000000     0.900880000000     0.0361709  
H292     H      0.435730000000     0.733710000000     0.909690000000     0.0417921  
H293     H      0.311430000000     0.779490000000     0.930260000000     0.036151   
H294     H      0.334580000000     0.832230000000     0.921450000000     0.0417722  
H295     H      0.371380000000     0.772780000000     0.956080000000     0.0454475  
H296     H      0.367690000000     0.734440000000     0.916450000000     0.0454241  
H297     H      0.340150000000     0.764970000000     0.857860000000     0.102082   
H298     H      0.398930000000     0.793150000000     0.875050000000     0.0454405  
H299     H      0.402620000000     0.831490000000     0.914690000000     0.0453876  
H300     H      0.430150000000     0.800970000000     0.973270000000     0.102062   
H301     H      0.085140000000     0.045770000000     0.876600000000     0.0290158  
H302     H      0.095290000000     0.095990000000     0.905150000000     0.0409717  
H303     H      0.185220000000     0.020210000000     0.954580000000     0.0289594  
H304     H      0.175060000000     0.969990000000     0.926030000000     0.0407294  
H305     H      0.161050000000     0.071530000000     0.903490000000     0.0464747  
H306     H      0.149750000000     0.021370000000     0.875830000000     0.0496194  
H307     H      0.226300000000     0.048090000000     0.906060000000     0.102666   
H308     H      0.109300000000     0.994440000000     0.927690000000     0.0461033  
H309     H      0.120610000000     0.044610000000     0.955350000000     0.0494232  
H310     H      0.044060000000     0.017870000000     0.925110000000     0.102576   
H311     H      0.334800000000     0.984210000000     0.674740000000     0.0429098  
H312     H      0.321940000000     0.040670000000     0.658400000000     0.0333945  
H313     H      0.435490000000     0.081770000000     0.656400000000     0.0432131  
H314     H      0.448340000000     0.025310000000     0.672740000000     0.0335232  
H315     H      0.382160000000     0.045780000000     0.623300000000     0.0474587  
H316     H      0.394970000000     0.990270000000     0.641810000000     0.0439253  
H317     H      0.444760000000     0.004940000000     0.599120000000     0.103058   
H318     H      0.388130000000     0.020190000000     0.707840000000     0.0475946  
H319     H      0.375320000000     0.075700000000     0.689340000000     0.0442616  
H320     H      0.325520000000     0.061040000000     0.732010000000     0.103049   
H321     H      0.679480000000     0.341490000000     0.159260000000     0.0426521  
H322     H      0.689840000000     0.289510000000     0.133160000000     0.0292776  
H323     H      0.590810000000     0.224480000000     0.171890000000     0.0426594  
H324     H      0.580450000000     0.276460000000     0.198000000000     0.02926    
H325     H      0.624400000000     0.271720000000     0.124370000000     0.0497494  
H326     H      0.613160000000     0.323610000000     0.149820000000     0.0466877  
H327     H      0.546540000000     0.306230000000     0.144040000000     0.103029   
H328     H      0.645890000000     0.294260000000     0.206780000000     0.0497219  
H329     H      0.657130000000     0.242360000000     0.181330000000     0.0466881  
H330     H      0.723760000000     0.259740000000     0.187110000000     0.102993   
H331     H      0.572430000000     0.291000000000     0.420590000000     0.040865   
H332     H      0.596090000000     0.342370000000     0.434770000000     0.0269146  
H333     H      0.697870000000     0.274990000000     0.410570000000     0.0408531  
H334     H      0.674210000000     0.223610000000     0.396380000000     0.0268973  
H335     H      0.645940000000     0.323010000000     0.388920000000     0.0565086  
H336     H      0.622640000000     0.271410000000     0.374850000000     0.0489762  
H337     H      0.688220000000     0.237580000000     0.333000000000     0.102172   
H338     H      0.624360000000     0.242970000000     0.442240000000     0.0565031  
H339     H      0.647650000000     0.294570000000     0.456310000000     0.0489685  
H340     H      0.582070000000     0.328400000000     0.498160000000     0.102136   
H341     H      0.640880000000     0.475930000000     0.213540000000     0.0404944  
H342     H      0.616770000000     0.526300000000     0.229110000000     0.0272109  
H343     H      0.629420000000     0.590040000000     0.117630000000     0.04052    
H344     H      0.653530000000     0.539670000000     0.102060000000     0.0272455  
H345     H      0.594270000000     0.540850000000     0.162520000000     0.055307   
H346     H      0.617950000000     0.490500000000     0.146270000000     0.0487208  
H347     H      0.603070000000     0.511580000000     0.068810000000     0.100567   
H348     H      0.676020000000     0.525120000000     0.168650000000     0.0553467  
H349     H      0.652350000000     0.575470000000     0.184900000000     0.0487117  
H350     H      0.667230000000     0.554380000000     0.262360000000     0.100578   
H351     H      0.895560000000     0.343760000000     0.208420000000     0.0293076  
H352     H      0.861560000000     0.304630000000     0.225270000000     0.0459343  
H353     H      0.874730000000     0.222210000000     0.122730000000     0.0292673  
H354     H      0.908740000000     0.261340000000     0.105870000000     0.0459752  
H355     H      0.891360000000     0.239310000000     0.189590000000     0.0465339  
H356     H      0.925610000000     0.278350000000     0.173350000000     0.0514134  
H357     H      0.922820000000     0.176360000000     0.155150000000     0.10001    
H358     H      0.878940000000     0.326660000000     0.141560000000     0.0465282  
H359     H      0.844680000000     0.287620000000     0.157800000000     0.0512927  
H360     H      0.847480000000     0.389600000000     0.176000000000     0.100039   
H361     H      0.895230000000     0.471230000000     0.373690000000     0.0287874  
H362     H      0.860290000000     0.509150000000     0.357010000000     0.0453889  
H363     H      0.875110000000     0.594710000000     0.457420000000     0.0287016  
H364     H      0.910040000000     0.556790000000     0.474110000000     0.0453804  
H365     H      0.890410000000     0.575930000000     0.390470000000     0.0467948  
H366     H      0.925390000000     0.537920000000     0.406640000000     0.0518558  
H367     H      0.921440000000     0.640660000000     0.422860000000     0.100128   
H368     H      0.879930000000     0.490020000000     0.440640000000     0.0467786  
H369     H      0.844940000000     0.528030000000     0.424470000000     0.0517059  
H370     H      0.848900000000     0.425280000000     0.408250000000     0.100146   
H371     H      0.958870000000     0.286440000000     0.400890000000     0.0363338  
H372     H      0.935730000000     0.233710000000     0.409690000000     0.0418418  
H373     H      0.811440000000     0.279490000000     0.430260000000     0.0361561  
H374     H      0.834580000000     0.332230000000     0.421460000000     0.0417812  
H375     H      0.871380000000     0.272780000000     0.456080000000     0.0454884  
H376     H      0.867690000000     0.234440000000     0.416450000000     0.0454397  
H377     H      0.840150000000     0.264970000000     0.357870000000     0.102127   
H378     H      0.898930000000     0.293150000000     0.375050000000     0.045483   
H379     H      0.902620000000     0.331490000000     0.414690000000     0.0454508  
H380     H      0.930150000000     0.300970000000     0.473270000000     0.102171   
H381     H      0.585140000000     0.545770000000     0.376600000000     0.029014   
H382     H      0.595290000000     0.595990000000     0.405150000000     0.0409777  
H383     H      0.685220000000     0.520210000000     0.454580000000     0.0290124  
H384     H      0.675060000000     0.469990000000     0.426030000000     0.0409761  
H385     H      0.661060000000     0.571530000000     0.403490000000     0.0464255  
H386     H      0.649750000000     0.521370000000     0.375830000000     0.0495096  
H387     H      0.726300000000     0.548090000000     0.406060000000     0.102669   
H388     H      0.609300000000     0.494440000000     0.427690000000     0.0464254  
H389     H      0.620610000000     0.544610000000     0.455350000000     0.0495072  
H390     H      0.544060000000     0.517870000000     0.425110000000     0.102648   
H391     H      0.834800000000     0.484210000000     0.174740000000     0.0431715  
H392     H      0.821940000000     0.540670000000     0.158400000000     0.0334473  
H393     H      0.935490000000     0.581770000000     0.156400000000     0.0431975  
H394     H      0.948340000000     0.525310000000     0.172740000000     0.0335333  
H395     H      0.882160000000     0.545780000000     0.123300000000     0.0475358  
H396     H      0.894970000000     0.490270000000     0.141810000000     0.0442523  
H397     H      0.944760000000     0.504940000000     0.099120000000     0.103088   
H398     H      0.888130000000     0.520190000000     0.207840000000     0.0475274  
H399     H      0.875320000000     0.575700000000     0.189330000000     0.0442397  
H400     H      0.825520000000     0.561040000000     0.232010000000     0.103045   
H401     H      0.679480000000     0.341490000000     0.659260000000     0.0426411  
H402     H      0.689840000000     0.289510000000     0.633160000000     0.029256   
H403     H      0.590810000000     0.224480000000     0.671890000000     0.0426594  
H404     H      0.580450000000     0.276460000000     0.698000000000     0.0292623  
H405     H      0.624400000000     0.271720000000     0.624370000000     0.0497292  
H406     H      0.613160000000     0.323610000000     0.649820000000     0.0466764  
H407     H      0.546540000000     0.306230000000     0.644040000000     0.103021   
H408     H      0.645890000000     0.294260000000     0.706780000000     0.0497215  
H409     H      0.657130000000     0.242360000000     0.681340000000     0.0466816  
H410     H      0.723760000000     0.259740000000     0.687110000000     0.102987   
H411     H      0.572430000000     0.291000000000     0.920590000000     0.0408726  
H412     H      0.596090000000     0.342370000000     0.934780000000     0.0269139  
H413     H      0.697870000000     0.274990000000     0.910570000000     0.0408373  
H414     H      0.674210000000     0.223610000000     0.896380000000     0.0268942  
H415     H      0.645940000000     0.323010000000     0.888920000000     0.0565078  
H416     H      0.622640000000     0.271410000000     0.874850000000     0.0489803  
H417     H      0.688220000000     0.237580000000     0.832990000000     0.102141   
H418     H      0.624360000000     0.242970000000     0.942240000000     0.0564868  
H419     H      0.647650000000     0.294570000000     0.956310000000     0.0489405  
H420     H      0.582070000000     0.328400000000     0.998160000000     0.102073   
H421     H      0.640880000000     0.475930000000     0.713540000000     0.0404938  
H422     H      0.616770000000     0.526300000000     0.729110000000     0.0272123  
H423     H      0.629420000000     0.590040000000     0.617630000000     0.0405074  
H424     H      0.653530000000     0.539670000000     0.602060000000     0.0272206  
H425     H      0.594270000000     0.540850000000     0.662520000000     0.0553071  
H426     H      0.617950000000     0.490500000000     0.646270000000     0.0487131  
H427     H      0.603070000000     0.511580000000     0.568810000000     0.100529   
H428     H      0.676020000000     0.525120000000     0.668650000000     0.0553388  
H429     H      0.652350000000     0.575470000000     0.684900000000     0.0487087  
H430     H      0.667230000000     0.554380000000     0.762360000000     0.100579   
H431     H      0.895560000000     0.343760000000     0.708420000000     0.0293082  
H432     H      0.861560000000     0.304630000000     0.725270000000     0.0459355  
H433     H      0.874730000000     0.222210000000     0.622730000000     0.0292469  
H434     H      0.908740000000     0.261340000000     0.605870000000     0.045954   
H435     H      0.891360000000     0.239310000000     0.689590000000     0.0465353  
H436     H      0.925610000000     0.278350000000     0.673350000000     0.0514142  
H437     H      0.922820000000     0.176360000000     0.655150000000     0.100008   
H438     H      0.878940000000     0.326660000000     0.641560000000     0.0465124  
H439     H      0.844680000000     0.287620000000     0.657800000000     0.0512805  
H440     H      0.847480000000     0.389600000000     0.676000000000     0.100031   
H441     H      0.895230000000     0.471230000000     0.873700000000     0.0287902  
H442     H      0.860290000000     0.509150000000     0.857010000000     0.0453942  
H443     H      0.875110000000     0.594710000000     0.957420000000     0.0286754  
H444     H      0.910040000000     0.556790000000     0.974110000000     0.0453468  
H445     H      0.890410000000     0.575930000000     0.890470000000     0.0467974  
H446     H      0.925390000000     0.537920000000     0.906640000000     0.0518548  
H447     H      0.921440000000     0.640660000000     0.922860000000     0.100126   
H448     H      0.879930000000     0.490020000000     0.940640000000     0.0467555  
H449     H      0.844940000000     0.528030000000     0.924470000000     0.0516906  
H450     H      0.848900000000     0.425280000000     0.908250000000     0.100133   
H451     H      0.958870000000     0.286440000000     0.900880000000     0.0363238  
H452     H      0.935730000000     0.233710000000     0.909690000000     0.0418398  
H453     H      0.811440000000     0.279490000000     0.930260000000     0.036143   
H454     H      0.834580000000     0.332230000000     0.921450000000     0.0417802  
H455     H      0.871380000000     0.272780000000     0.956080000000     0.0454589  
H456     H      0.867690000000     0.234440000000     0.916450000000     0.0454319  
H457     H      0.840150000000     0.264970000000     0.857860000000     0.102094   
H458     H      0.898930000000     0.293150000000     0.875050000000     0.045487   
H459     H      0.902620000000     0.331490000000     0.914690000000     0.0454442  
H460     H      0.930150000000     0.300970000000     0.973270000000     0.102122   
H461     H      0.585140000000     0.545770000000     0.876600000000     0.0290174  
H462     H      0.595290000000     0.595990000000     0.905150000000     0.040976   
H463     H      0.685220000000     0.520210000000     0.954580000000     0.0289811  
H464     H      0.675060000000     0.469990000000     0.926030000000     0.0409613  
H465     H      0.661060000000     0.571530000000     0.903490000000     0.0464216  
H466     H      0.649750000000     0.521370000000     0.875830000000     0.0495128  
H467     H      0.726300000000     0.548090000000     0.906060000000     0.10266    
H468     H      0.609300000000     0.494440000000     0.927690000000     0.0464093  
H469     H      0.620610000000     0.544610000000     0.955350000000     0.0494737  
H470     H      0.544060000000     0.517870000000     0.925110000000     0.102637   
H471     H      0.834800000000     0.484210000000     0.674740000000     0.0431719  
H472     H      0.821940000000     0.540670000000     0.658400000000     0.0334383  
H473     H      0.935490000000     0.581770000000     0.656400000000     0.0432256  
H474     H      0.948340000000     0.525310000000     0.672740000000     0.033562   
H475     H      0.882160000000     0.545780000000     0.623300000000     0.0475072  
H476     H      0.894970000000     0.490270000000     0.641810000000     0.0442317  
H477     H      0.944760000000     0.504940000000     0.599120000000     0.103062   
H478     H      0.888130000000     0.520190000000     0.707840000000     0.0475293  
H479     H      0.875320000000     0.575700000000     0.689340000000     0.0442349  
H480     H      0.825520000000     0.561040000000     0.732010000000     0.103033   
H481     H      0.679480000000     0.841490000000     0.159260000000     0.0426425  
H482     H      0.689840000000     0.789510000000     0.133160000000     0.0292787  
H483     H      0.590810000000     0.724480000000     0.171890000000     0.0426538  
H484     H      0.580450000000     0.776460000000     0.198000000000     0.0292442  
H485     H      0.624400000000     0.771720000000     0.124370000000     0.0497453  
H486     H      0.613160000000     0.823610000000     0.149820000000     0.0466713  
H487     H      0.546540000000     0.806230000000     0.144040000000     0.102966   
H488     H      0.645890000000     0.794260000000     0.206780000000     0.0497117  
H489     H      0.657130000000     0.742360000000     0.181330000000     0.0466835  
H490     H      0.723760000000     0.759740000000     0.187110000000     0.102991   
H491     H      0.572430000000     0.790990000000     0.420590000000     0.0408477  
H492     H      0.596090000000     0.842370000000     0.434770000000     0.0268828  
H493     H      0.697870000000     0.774990000000     0.410570000000     0.0408503  
H494     H      0.674210000000     0.723610000000     0.396380000000     0.0268963  
H495     H      0.645940000000     0.823010000000     0.388920000000     0.0564928  
H496     H      0.622640000000     0.771410000000     0.374850000000     0.0489676  
H497     H      0.688220000000     0.737580000000     0.333000000000     0.10217    
H498     H      0.624360000000     0.742970000000     0.442240000000     0.0565044  
H499     H      0.647650000000     0.794570000000     0.456310000000     0.0489628  
H500     H      0.582070000000     0.828400000000     0.498160000000     0.102111   
H501     H      0.640880000000     0.975930000000     0.213540000000     0.0402617  
H502     H      0.616770000000     0.026300000000     0.229110000000     0.0271791  
H503     H      0.629420000000     0.090040000000     0.117630000000     0.0405429  
H504     H      0.653530000000     0.039670000000     0.102060000000     0.0273116  
H505     H      0.594270000000     0.040850000000     0.162520000000     0.0552579  
H506     H      0.617950000000     0.990500000000     0.146270000000     0.048443   
H507     H      0.603070000000     0.011580000000     0.068810000000     0.100629   
H508     H      0.676020000000     0.025120000000     0.168650000000     0.0554585  
H509     H      0.652350000000     0.075470000000     0.184900000000     0.0487513  
H510     H      0.667230000000     0.054380000000     0.262360000000     0.10054    
H511     H      0.895560000000     0.843760000000     0.208420000000     0.0292917  
H512     H      0.861560000000     0.804630000000     0.225270000000     0.0459373  
H513     H      0.874730000000     0.722210000000     0.122730000000     0.0292626  
H514     H      0.908740000000     0.761340000000     0.105870000000     0.0459648  
H515     H      0.891360000000     0.739310000000     0.189590000000     0.0465319  
H516     H      0.925610000000     0.778350000000     0.173350000000     0.0514026  
H517     H      0.922820000000     0.676360000000     0.155150000000     0.100009   
H518     H      0.878940000000     0.826650000000     0.141560000000     0.046523   
H519     H      0.844680000000     0.787620000000     0.157800000000     0.0512917  
H520     H      0.847480000000     0.889600000000     0.176000000000     0.100051   
H521     H      0.895230000000     0.971230000000     0.373690000000     0.0288501  
H522     H      0.860290000000     0.009150000000     0.357010000000     0.0456984  
H523     H      0.875110000000     0.094710000000     0.457420000000     0.0286979  
H524     H      0.910040000000     0.056790000000     0.474110000000     0.0454027  
H525     H      0.890410000000     0.075930000000     0.390470000000     0.0468579  
H526     H      0.925390000000     0.037920000000     0.406640000000     0.0519631  
H527     H      0.921440000000     0.140660000000     0.422860000000     0.100133   
H528     H      0.879930000000     0.990020000000     0.440640000000     0.046448   
H529     H      0.844940000000     0.028030000000     0.424470000000     0.0516193  
H530     H      0.848900000000     0.925280000000     0.408250000000     0.100106   
H531     H      0.958870000000     0.786440000000     0.400890000000     0.0363205  
H532     H      0.935730000000     0.733710000000     0.409690000000     0.04184    
H533     H      0.811440000000     0.779490000000     0.430260000000     0.0361587  
H534     H      0.834580000000     0.832230000000     0.421460000000     0.0417758  
H535     H      0.871380000000     0.772780000000     0.456080000000     0.0454809  
H536     H      0.867690000000     0.734440000000     0.416450000000     0.0454367  
H537     H      0.840150000000     0.764970000000     0.357870000000     0.102127   
H538     H      0.898930000000     0.793150000000     0.375050000000     0.0454748  
H539     H      0.902620000000     0.831490000000     0.414690000000     0.0454347  
H540     H      0.930150000000     0.800970000000     0.473270000000     0.102157   
H541     H      0.585140000000     0.045770000000     0.376600000000     0.0290877  
H542     H      0.595290000000     0.095990000000     0.405150000000     0.0410089  
H543     H      0.685220000000     0.020210000000     0.454580000000     0.0289884  
H544     H      0.675060000000     0.969990000000     0.426030000000     0.0407457  
H545     H      0.661060000000     0.071530000000     0.403490000000     0.046468   
H546     H      0.649750000000     0.021370000000     0.375830000000     0.0496218  
H547     H      0.726300000000     0.048090000000     0.406060000000     0.102672   
H548     H      0.609300000000     0.994440000000     0.427690000000     0.0461386  
H549     H      0.620610000000     0.044610000000     0.455350000000     0.0494504  
H550     H      0.544060000000     0.017870000000     0.425110000000     0.10271    
H551     H      0.834800000000     0.984210000000     0.174740000000     0.042919   
H552     H      0.821940000000     0.040670000000     0.158400000000     0.0334085  
H553     H      0.935490000000     0.081770000000     0.156400000000     0.0432228  
H554     H      0.948340000000     0.025310000000     0.172740000000     0.0336064  
H555     H      0.882160000000     0.045780000000     0.123300000000     0.0474867  
H556     H      0.894970000000     0.990270000000     0.141810000000     0.0439727  
H557     H      0.944760000000     0.004940000000     0.099120000000     0.103154   
H558     H      0.888130000000     0.020190000000     0.207840000000     0.0476299  
H559     H      0.875320000000     0.075700000000     0.189330000000     0.0442819  
H560     H      0.825520000000     0.061040000000     0.232010000000     0.103062   
H561     H      0.679480000000     0.841490000000     0.659260000000     0.0426315  
H562     H      0.689840000000     0.789510000000     0.633160000000     0.0292571  
H563     H      0.590810000000     0.724480000000     0.671890000000     0.0426537  
H564     H      0.580450000000     0.776460000000     0.698000000000     0.0292466  
H565     H      0.624400000000     0.771720000000     0.624370000000     0.0497251  
H566     H      0.613160000000     0.823610000000     0.649820000000     0.04666    
H567     H      0.546540000000     0.806230000000     0.644040000000     0.102958   
H568     H      0.645890000000     0.794260000000     0.706780000000     0.0497112  
H569     H      0.657130000000     0.742360000000     0.681340000000     0.0466771  
H570     H      0.723760000000     0.759740000000     0.687110000000     0.102985   
H571     H      0.572430000000     0.790990000000     0.920590000000     0.0408554  
H572     H      0.596090000000     0.842370000000     0.934780000000     0.026882   
H573     H      0.697870000000     0.774990000000     0.910570000000     0.0408346  
H574     H      0.674210000000     0.723610000000     0.896380000000     0.0268932  
H575     H      0.645940000000     0.823010000000     0.888920000000     0.056492   
H576     H      0.622640000000     0.771410000000     0.874850000000     0.0489717  
H577     H      0.688220000000     0.737580000000     0.832990000000     0.102138   
H578     H      0.624360000000     0.742970000000     0.942240000000     0.0564881  
H579     H      0.647650000000     0.794570000000     0.956310000000     0.0489348  
H580     H      0.582070000000     0.828400000000     0.998160000000     0.102048   
H581     H      0.640880000000     0.975930000000     0.713540000000     0.040261   
H582     H      0.616770000000     0.026300000000     0.729110000000     0.0271805  
H583     H      0.629420000000     0.090040000000     0.617630000000     0.0405303  
H584     H      0.653530000000     0.039670000000     0.602060000000     0.0272867  
H585     H      0.594270000000     0.040850000000     0.662520000000     0.055258   
H586     H      0.617950000000     0.990500000000     0.646270000000     0.0484352  
H587     H      0.603070000000     0.011580000000     0.568810000000     0.100591   
H588     H      0.676020000000     0.025120000000     0.668650000000     0.0554507  
H589     H      0.652350000000     0.075470000000     0.684900000000     0.0487483  
H590     H      0.667230000000     0.054380000000     0.762360000000     0.100541   
H591     H      0.895560000000     0.843760000000     0.708420000000     0.0292923  
H592     H      0.861560000000     0.804630000000     0.725270000000     0.0459385  
H593     H      0.874730000000     0.722210000000     0.622730000000     0.0292422  
H594     H      0.908740000000     0.761340000000     0.605870000000     0.0459435  
H595     H      0.891360000000     0.739310000000     0.689590000000     0.0465334  
H596     H      0.925610000000     0.778350000000     0.673350000000     0.0514033  
H597     H      0.922820000000     0.676360000000     0.655150000000     0.100007   
H598     H      0.878940000000     0.826650000000     0.641560000000     0.0465073  
H599     H      0.844680000000     0.787620000000     0.657800000000     0.0512794  
H600     H      0.847480000000     0.889600000000     0.676000000000     0.100043   
H601     H      0.895230000000     0.971230000000     0.873700000000     0.0288529  
H602     H      0.860290000000     0.009150000000     0.857010000000     0.0457037  
H603     H      0.875110000000     0.094710000000     0.957420000000     0.0286716  
H604     H      0.910040000000     0.056790000000     0.974110000000     0.045369   
H605     H      0.890410000000     0.075930000000     0.890470000000     0.0468604  
H606     H      0.925390000000     0.037920000000     0.906640000000     0.051962   
H607     H      0.921440000000     0.140660000000     0.922860000000     0.100131   
H608     H      0.879930000000     0.990020000000     0.940640000000     0.0464249  
H609     H      0.844940000000     0.028030000000     0.924470000000     0.051604   
H610     H      0.848900000000     0.925280000000     0.908250000000     0.100094   
H611     H      0.958870000000     0.786440000000     0.900880000000     0.0363105  
H612     H      0.935730000000     0.733710000000     0.909690000000     0.041838   
H613     H      0.811440000000     0.779490000000     0.930260000000     0.0361456  
H614     H      0.834580000000     0.832230000000     0.921450000000     0.0417748  
H615     H      0.871380000000     0.772780000000     0.956080000000     0.0454514  
H616     H      0.867690000000     0.734440000000     0.916450000000     0.0454289  
H617     H      0.840150000000     0.764970000000     0.857860000000     0.102093   
H618     H      0.898930000000     0.793150000000     0.875050000000     0.0454788  
H619     H      0.902620000000     0.831490000000     0.914690000000     0.0454281  
H620     H      0.930150000000     0.800970000000     0.973270000000     0.102108   
H621     H      0.585140000000     0.045770000000     0.876600000000     0.0290911  
H622     H      0.595290000000     0.095990000000     0.905150000000     0.0410072  
H623     H      0.685220000000     0.020210000000     0.954580000000     0.0289571  
H624     H      0.675060000000     0.969990000000     0.926030000000     0.040731   
H625     H      0.661060000000     0.071530000000     0.903490000000     0.0464641  
H626     H      0.649750000000     0.021370000000     0.875830000000     0.0496251  
H627     H      0.726300000000     0.048090000000     0.906060000000     0.102662   
H628     H      0.609300000000     0.994440000000     0.927690000000     0.0461225  
H629     H      0.620610000000     0.044610000000     0.955350000000     0.049417   
H630     H      0.544060000000     0.017870000000     0.925110000000     0.1027     
H631     H      0.834800000000     0.984210000000     0.674740000000     0.0429193  
H632     H      0.821940000000     0.040670000000     0.658400000000     0.0333995  
H633     H      0.935490000000     0.081770000000     0.656400000000     0.0432509  
H634     H      0.948340000000     0.025310000000     0.672740000000     0.0336352  
H635     H      0.882160000000     0.045780000000     0.623300000000     0.0474581  
H636     H      0.894970000000     0.990270000000     0.641810000000     0.043952   
H637     H      0.944760000000     0.004940000000     0.599120000000     0.103128   
H638     H      0.888130000000     0.020190000000     0.707840000000     0.0476319  
H639     H      0.875320000000     0.075700000000     0.689340000000     0.0442771  
H640     H      0.825520000000     0.061040000000     0.732010000000     0.10305    
N1       N      0.055220000000     0.272010000000     0.145100000000    -0.21651    
N2       N      0.215070000000     0.293960000000     0.186050000000    -0.216422   
N3       N      0.191500000000     0.265610000000     0.351230000000    -0.21672    
N4       N      0.078800000000     0.300370000000     0.479920000000    -0.2167     
N5       N      0.099560000000     0.541180000000     0.085240000000    -0.216459   
N6       N      0.170740000000     0.524790000000     0.245930000000    -0.216505   
N7       N      0.427080000000     0.199870000000     0.133160000000    -0.214781   
N8       N      0.343220000000     0.366090000000     0.197980000000    -0.214803   
N9       N      0.426860000000     0.617630000000     0.444910000000    -0.215692   
N10      N      0.343480000000     0.448310000000     0.386210000000    -0.215628   
N11      N      0.325950000000     0.289610000000     0.373370000000    -0.213339   
N12      N      0.444360000000     0.276340000000     0.457770000000    -0.213412   
N13      N      0.215760000000     0.514740000000     0.405010000000    -0.216951   
N14      N      0.054600000000     0.551220000000     0.426160000000    -0.216868   
N15      N      0.452590000000     0.534510000000     0.113910000000    -0.213681   
N16      N      0.317700000000     0.531470000000     0.217230000000    -0.213684   
N17      N      0.055220000000     0.272010000000     0.645100000000    -0.21651    
N18      N      0.215070000000     0.293960000000     0.686050000000    -0.216424   
N19      N      0.191500000000     0.265610000000     0.851230000000    -0.216704   
N20      N      0.078800000000     0.300370000000     0.979920000000    -0.216668   
N21      N      0.099560000000     0.541180000000     0.585240000000    -0.216464   
N22      N      0.170740000000     0.524790000000     0.745930000000    -0.216504   
N23      N      0.427080000000     0.199870000000     0.633160000000    -0.214786   
N24      N      0.343220000000     0.366090000000     0.697980000000    -0.214802   
N25      N      0.426860000000     0.617630000000     0.944910000000    -0.215703   
N26      N      0.343480000000     0.448310000000     0.886210000000    -0.215627   
N27      N      0.325950000000     0.289610000000     0.873370000000    -0.213307   
N28      N      0.444360000000     0.276340000000     0.957770000000    -0.21338    
N29      N      0.215760000000     0.514740000000     0.905010000000    -0.216956   
N30      N      0.054600000000     0.551220000000     0.926160000000    -0.216872   
N31      N      0.452590000000     0.534510000000     0.613910000000    -0.213662   
N32      N      0.317700000000     0.531470000000     0.717230000000    -0.21362    
N33      N      0.055220000000     0.772000000000     0.145100000000    -0.216544   
N34      N      0.215070000000     0.793960000000     0.186050000000    -0.216417   
N35      N      0.191500000000     0.765610000000     0.351230000000    -0.21672    
N36      N      0.078800000000     0.800370000000     0.479920000000    -0.216711   
N37      N      0.099560000000     0.041180000000     0.085240000000    -0.216437   
N38      N      0.170740000000     0.024780000000     0.245930000000    -0.21635    
N39      N      0.427080000000     0.699870000000     0.133160000000    -0.214786   
N40      N      0.343220000000     0.866100000000     0.197980000000    -0.214832   
N41      N      0.426860000000     0.117630000000     0.444910000000    -0.215703   
N42      N      0.343480000000     0.948310000000     0.386210000000    -0.215552   
N43      N      0.325950000000     0.789610000000     0.373370000000    -0.213352   
N44      N      0.444360000000     0.776340000000     0.457770000000    -0.213415   
N45      N      0.215760000000     0.014740000000     0.405010000000    -0.216768   
N46      N      0.054600000000     0.051220000000     0.426160000000    -0.216841   
N47      N      0.452590000000     0.034510000000     0.113910000000    -0.21364    
N48      N      0.317700000000     0.031470000000     0.217230000000    -0.213754   
N49      N      0.055220000000     0.772000000000     0.645100000000    -0.216543   
N50      N      0.215070000000     0.793960000000     0.686050000000    -0.21642    
N51      N      0.191500000000     0.765610000000     0.851230000000    -0.216704   
N52      N      0.078800000000     0.800370000000     0.979920000000    -0.216678   
N53      N      0.099560000000     0.041180000000     0.585240000000    -0.216442   
N54      N      0.170740000000     0.024780000000     0.745930000000    -0.216349   
N55      N      0.427080000000     0.699870000000     0.633160000000    -0.21479    
N56      N      0.343220000000     0.866100000000     0.697980000000    -0.214832   
N57      N      0.426860000000     0.117630000000     0.944910000000    -0.215713   
N58      N      0.343480000000     0.948310000000     0.886210000000    -0.215551   
N59      N      0.325950000000     0.789610000000     0.873370000000    -0.213319   
N60      N      0.444360000000     0.776340000000     0.957770000000    -0.213383   
N61      N      0.215760000000     0.014740000000     0.905010000000    -0.216773   
N62      N      0.054600000000     0.051220000000     0.926160000000    -0.216845   
N63      N      0.452590000000     0.034510000000     0.613910000000    -0.213622   
N64      N      0.317700000000     0.031470000000     0.717230000000    -0.21369    
N65      N      0.555220000000     0.272010000000     0.145100000000    -0.216492   
N66      N      0.715070000000     0.293960000000     0.186050000000    -0.216422   
N67      N      0.691500000000     0.265610000000     0.351230000000    -0.21672    
N68      N      0.578800000000     0.300370000000     0.479920000000    -0.21669    
N69      N      0.599560000000     0.541180000000     0.085240000000    -0.216415   
N70      N      0.670740000000     0.524790000000     0.245930000000    -0.216499   
N71      N      0.927080000000     0.199870000000     0.133160000000    -0.214731   
N72      N      0.843220000000     0.366090000000     0.197980000000    -0.214796   
N73      N      0.926860000000     0.617630000000     0.444910000000    -0.215659   
N74      N      0.843480000000     0.448310000000     0.386210000000    -0.215627   
N75      N      0.825950000000     0.289610000000     0.373370000000    -0.21334    
N76      N      0.944360000000     0.276340000000     0.457770000000    -0.21336    
N77      N      0.715760000000     0.514740000000     0.405010000000    -0.216969   
N78      N      0.554600000000     0.551220000000     0.426160000000    -0.216846   
N79      N      0.952590000000     0.534510000000     0.113910000000    -0.213626   
N80      N      0.817690000000     0.531470000000     0.217230000000    -0.213712   
N81      N      0.555220000000     0.272010000000     0.645100000000    -0.216492   
N82      N      0.715070000000     0.293960000000     0.686050000000    -0.216424   
N83      N      0.691500000000     0.265610000000     0.851230000000    -0.216704   
N84      N      0.578800000000     0.300370000000     0.979920000000    -0.216658   
N85      N      0.599560000000     0.541180000000     0.585240000000    -0.21642    
N86      N      0.670740000000     0.524790000000     0.745930000000    -0.216499   
N87      N      0.927080000000     0.199870000000     0.633160000000    -0.214736   
N88      N      0.843220000000     0.366090000000     0.697980000000    -0.214796   
N89      N      0.926860000000     0.617630000000     0.944910000000    -0.215669   
N90      N      0.843480000000     0.448310000000     0.886210000000    -0.215625   
N91      N      0.825950000000     0.289610000000     0.873370000000    -0.213308   
N92      N      0.944360000000     0.276340000000     0.957770000000    -0.213328   
N93      N      0.715760000000     0.514740000000     0.905010000000    -0.216974   
N94      N      0.554600000000     0.551220000000     0.926160000000    -0.216849   
N95      N      0.952590000000     0.534510000000     0.613910000000    -0.213607   
N96      N      0.817690000000     0.531470000000     0.717230000000    -0.213648   
N97      N      0.555220000000     0.772000000000     0.145100000000    -0.216525   
N98      N      0.715070000000     0.793960000000     0.186050000000    -0.216417   
N99      N      0.691500000000     0.765610000000     0.351230000000    -0.21672    
N100     N      0.578800000000     0.800370000000     0.479920000000    -0.216701   
N101     N      0.599560000000     0.041180000000     0.085240000000    -0.216393   
N102     N      0.670740000000     0.024780000000     0.245930000000    -0.216345   
N103     N      0.927080000000     0.699870000000     0.133160000000    -0.214736   
N104     N      0.843220000000     0.866100000000     0.197980000000    -0.214826   
N105     N      0.926860000000     0.117630000000     0.444910000000    -0.21567    
N106     N      0.843480000000     0.948310000000     0.386210000000    -0.215551   
N107     N      0.825950000000     0.789610000000     0.373370000000    -0.213353   
N108     N      0.944360000000     0.776340000000     0.457770000000    -0.213364   
N109     N      0.715760000000     0.014740000000     0.405010000000    -0.216787   
N110     N      0.554600000000     0.051220000000     0.426160000000    -0.216819   
N111     N      0.952590000000     0.034510000000     0.113910000000    -0.213585   
N112     N      0.817690000000     0.031470000000     0.217230000000    -0.213782   
N113     N      0.555220000000     0.772000000000     0.645100000000    -0.216525   
N114     N      0.715070000000     0.793960000000     0.686050000000    -0.21642    
N115     N      0.691500000000     0.765610000000     0.851230000000    -0.216705   
N116     N      0.578800000000     0.800370000000     0.979920000000    -0.216668   
N117     N      0.599560000000     0.041180000000     0.585240000000    -0.216398   
N118     N      0.670740000000     0.024780000000     0.745930000000    -0.216344   
N119     N      0.927080000000     0.699870000000     0.633160000000    -0.21474    
N120     N      0.843220000000     0.866100000000     0.697980000000    -0.214825   
N121     N      0.926860000000     0.117630000000     0.944910000000    -0.21568    
N122     N      0.843480000000     0.948310000000     0.886210000000    -0.215549   
N123     N      0.825950000000     0.789610000000     0.873370000000    -0.213321   
N124     N      0.944360000000     0.776340000000     0.957770000000    -0.213331   
N125     N      0.715760000000     0.014740000000     0.905010000000    -0.216792   
N126     N      0.554600000000     0.051220000000     0.926160000000    -0.216822   
N127     N      0.952590000000     0.034510000000     0.613910000000    -0.213567   
N128     N      0.817690000000     0.031470000000     0.717230000000    -0.213718   
O1       O      0.481600000000     0.556720000000     0.061300000000    -0.37648    
O2       O      0.471070000000     0.254960000000     0.512270000000    -0.376154   
O3       O      0.479300000000     0.164190000000     0.121460000000    -0.364296   
O4       O      0.479310000000     0.653910000000     0.453290000000    -0.366735   
O5       O      0.462180000000     0.221100000000     0.083040000000    -0.371598   
O6       O      0.464330000000     0.597970000000     0.493550000000    -0.373232   
O7       O      0.488270000000     0.221580000000     0.458320000000    -0.343898   
O8       O      0.489320000000     0.597830000000     0.114040000000    -0.3497     
O9       O      0.020770000000     0.564380000000     0.477620000000    -0.369831   
O10      O      0.020840000000     0.257400000000     0.094190000000    -0.367885   
O11      O      0.065950000000     0.604540000000     0.098200000000    -0.383691   
O12      O      0.055260000000     0.229160000000     0.470170000000    -0.381781   
O13      O      0.040960000000     0.267790000000     0.522700000000    -0.368003   
O14      O      0.050950000000     0.559680000000     0.049430000000    -0.369915   
O15      O      0.049760000000     0.623500000000     0.451810000000    -0.380989   
O16      O      0.048540000000     0.198660000000     0.122290000000    -0.376489   
O17      O      0.529530000000     0.661180000000     0.036850000000    -0.60455    
O18      O      0.280970000000     0.468130000000     0.217110000000    -0.349702   
O19      O      0.282040000000     0.344380000000     0.372830000000    -0.343746   
O20      O      0.306000000000     0.467990000000     0.337580000000    -0.373163   
O21      O      0.308120000000     0.344870000000     0.248110000000    -0.371633   
O22      O      0.291020000000     0.412040000000     0.377840000000    -0.366752   
O23      O      0.290990000000     0.401770000000     0.209690000000    -0.364282   
O24      O      0.299230000000     0.310990000000     0.318870000000    -0.37609    
O25      O      0.288690000000     0.509260000000     0.269840000000    -0.376448   
O26      O      0.221760000000     0.367310000000     0.208860000000    -0.376431   
O27      O      0.220570000000     0.442470000000     0.379360000000    -0.380981   
O28      O      0.219360000000     0.506280000000     0.281730000000    -0.369923   
O29      O      0.229340000000     0.298180000000     0.308450000000    -0.368015   
O30      O      0.215050000000     0.336810000000     0.360990000000    -0.381761   
O31      O      0.204350000000     0.461430000000     0.232960000000    -0.383756   
O32      O      0.249460000000     0.308560000000     0.236960000000    -0.36782    
O33      O      0.249560000000     0.501580000000     0.353540000000    -0.369799   
O34      O      0.240770000000     0.404790000000     0.294310000000    -0.604588   
O35      O      0.481600000000     0.556720000000     0.561300000000    -0.376497   
O36      O      0.471070000000     0.254960000000     0.012270000000    -0.375946   
O37      O      0.479300000000     0.164190000000     0.621460000000    -0.364297   
O38      O      0.479310000000     0.653910000000     0.953290000000    -0.366735   
O39      O      0.462180000000     0.221100000000     0.583040000000    -0.371609   
O40      O      0.464330000000     0.597970000000     0.993550000000    -0.37335    
O41      O      0.488270000000     0.221580000000     0.958320000000    -0.343842   
O42      O      0.489320000000     0.597830000000     0.614040000000    -0.349695   
O43      O      0.020770000000     0.564380000000     0.977620000000    -0.369938   
O44      O      0.020840000000     0.257400000000     0.594190000000    -0.367886   
O45      O      0.065950000000     0.604540000000     0.598200000000    -0.383694   
O46      O      0.055260000000     0.229160000000     0.970170000000    -0.381729   
O47      O      0.040960000000     0.267790000000     0.022700000000    -0.367801   
O48      O      0.050950000000     0.559680000000     0.549430000000    -0.369937   
O49      O      0.049760000000     0.623500000000     0.951810000000    -0.380998   
O50      O      0.048540000000     0.198660000000     0.622290000000    -0.376494   
O51      O      0.529530000000     0.661180000000     0.536850000000    -0.604618   
O52      O      0.280970000000     0.468130000000     0.717100000000    -0.349545   
O53      O      0.282040000000     0.344380000000     0.872830000000    -0.343751   
O54      O      0.306000000000     0.467990000000     0.837580000000    -0.373159   
O55      O      0.308120000000     0.344870000000     0.748110000000    -0.371632   
O56      O      0.291020000000     0.412040000000     0.877840000000    -0.36676    
O57      O      0.290990000000     0.401770000000     0.709690000000    -0.36429    
O58      O      0.299230000000     0.310990000000     0.818870000000    -0.376089   
O59      O      0.288690000000     0.509260000000     0.769850000000    -0.37632    
O60      O      0.221760000000     0.367310000000     0.708860000000    -0.376426   
O61      O      0.220570000000     0.442470000000     0.879360000000    -0.380986   
O62      O      0.219360000000     0.506280000000     0.781730000000    -0.369926   
O63      O      0.229340000000     0.298180000000     0.808450000000    -0.36793    
O64      O      0.215050000000     0.336810000000     0.860990000000    -0.381814   
O65      O      0.204350000000     0.461430000000     0.732960000000    -0.383754   
O66      O      0.249460000000     0.308560000000     0.736960000000    -0.36782    
O67      O      0.249560000000     0.501580000000     0.853540000000    -0.3698     
O68      O      0.240770000000     0.404790000000     0.794310000000    -0.604582   
O69      O      0.481600000000     0.056720000000     0.061300000000    -0.376478   
O70      O      0.471070000000     0.754960000000     0.512270000000    -0.376204   
O71      O      0.479300000000     0.664190000000     0.121460000000    -0.364313   
O72      O      0.479310000000     0.153910000000     0.453290000000    -0.36672    
O73      O      0.462180000000     0.721100000000     0.083040000000    -0.37162    
O74      O      0.464330000000     0.097970000000     0.493550000000    -0.373233   
O75      O      0.488270000000     0.721580000000     0.458320000000    -0.343862   
O76      O      0.489320000000     0.097840000000     0.114040000000    -0.349643   
O77      O      0.020770000000     0.064380000000     0.477620000000    -0.369847   
O78      O      0.020840000000     0.757400000000     0.094190000000    -0.367978   
O79      O      0.065950000000     0.104540000000     0.098200000000    -0.383695   
O80      O      0.055260000000     0.729160000000     0.470170000000    -0.381738   
O81      O      0.040960000000     0.767790000000     0.522700000000    -0.368059   
O82      O      0.050950000000     0.059680000000     0.049430000000    -0.369938   
O83      O      0.049760000000     0.123500000000     0.451810000000    -0.380956   
O84      O      0.048540000000     0.698660000000     0.122290000000    -0.376421   
O85      O      0.529530000000     0.161180000000     0.036850000000    -0.604545   
O86      O      0.280970000000     0.968130000000     0.217110000000    -0.349941   
O87      O      0.282040000000     0.844370000000     0.372830000000    -0.343788   
O88      O      0.306000000000     0.967990000000     0.337580000000    -0.373189   
O89      O      0.308120000000     0.844870000000     0.248110000000    -0.371597   
O90      O      0.291020000000     0.912040000000     0.377840000000    -0.366819   
O91      O      0.290990000000     0.901770000000     0.209690000000    -0.364341   
O92      O      0.299230000000     0.810990000000     0.318870000000    -0.376118   
O93      O      0.288690000000     0.009260000000     0.269840000000    -0.376345   
O94      O      0.221760000000     0.867310000000     0.208860000000    -0.376444   
O95      O      0.220570000000     0.942470000000     0.379360000000    -0.380871   
O96      O      0.219360000000     0.006280000000     0.281730000000    -0.36953    
O97      O      0.229340000000     0.798180000000     0.308450000000    -0.368013   
O98      O      0.215050000000     0.836810000000     0.360990000000    -0.381763   
O99      O      0.204350000000     0.961430000000     0.232960000000    -0.383696   
O100     O      0.249460000000     0.808560000000     0.236960000000    -0.367817   
O101     O      0.249560000000     0.001590000000     0.353540000000    -0.369283   
O102     O      0.240770000000     0.904790000000     0.294310000000    -0.604548   
O103     O      0.481600000000     0.056720000000     0.561300000000    -0.376495   
O104     O      0.471070000000     0.754960000000     0.012270000000    -0.375996   
O105     O      0.479300000000     0.664190000000     0.621460000000    -0.364314   
O106     O      0.479310000000     0.153910000000     0.953290000000    -0.36672    
O107     O      0.462180000000     0.721100000000     0.583040000000    -0.371631   
O108     O      0.464330000000     0.097970000000     0.993550000000    -0.373351   
O109     O      0.488270000000     0.721580000000     0.958320000000    -0.343806   
O110     O      0.489320000000     0.097840000000     0.614040000000    -0.349638   
O111     O      0.020770000000     0.064380000000     0.977620000000    -0.369953   
O112     O      0.020840000000     0.757400000000     0.594190000000    -0.367979   
O113     O      0.065950000000     0.104540000000     0.598200000000    -0.383698   
O114     O      0.055260000000     0.729160000000     0.970170000000    -0.381686   
O115     O      0.040960000000     0.767790000000     0.022700000000    -0.367857   
O116     O      0.050950000000     0.059680000000     0.549430000000    -0.369961   
O117     O      0.049760000000     0.123500000000     0.951810000000    -0.380965   
O118     O      0.048540000000     0.698660000000     0.622290000000    -0.376426   
O119     O      0.529530000000     0.161180000000     0.536850000000    -0.604613   
O120     O      0.280970000000     0.968130000000     0.717100000000    -0.349784   
O121     O      0.282040000000     0.844370000000     0.872830000000    -0.343792   
O122     O      0.306000000000     0.967990000000     0.837580000000    -0.373185   
O123     O      0.308120000000     0.844870000000     0.748110000000    -0.371596   
O124     O      0.291020000000     0.912040000000     0.877840000000    -0.366827   
O125     O      0.290990000000     0.901770000000     0.709690000000    -0.364349   
O126     O      0.299230000000     0.810990000000     0.818870000000    -0.376117   
O127     O      0.288690000000     0.009260000000     0.769850000000    -0.376218   
O128     O      0.221760000000     0.867310000000     0.708860000000    -0.376439   
O129     O      0.220570000000     0.942470000000     0.879360000000    -0.380877   
O130     O      0.219360000000     0.006280000000     0.781730000000    -0.369533   
O131     O      0.229340000000     0.798180000000     0.808450000000    -0.367928   
O132     O      0.215050000000     0.836810000000     0.860990000000    -0.381816   
O133     O      0.204350000000     0.961430000000     0.732960000000    -0.383694   
O134     O      0.249460000000     0.808560000000     0.736960000000    -0.367818   
O135     O      0.249560000000     0.001590000000     0.853540000000    -0.369283   
O136     O      0.240770000000     0.904790000000     0.794310000000    -0.604541   
O137     O      0.981600000000     0.556720000000     0.061300000000    -0.375997   
O138     O      0.971070000000     0.254960000000     0.512270000000    -0.375705   
O139     O      0.979310000000     0.164190000000     0.121460000000    -0.363836   
O140     O      0.979310000000     0.653910000000     0.453290000000    -0.366307   
O141     O      0.962180000000     0.221100000000     0.083040000000    -0.371134   
O142     O      0.964330000000     0.597970000000     0.493550000000    -0.372799   
O143     O      0.988270000000     0.221580000000     0.458320000000    -0.343456   
O144     O      0.989320000000     0.597830000000     0.114040000000    -0.349278   
O145     O      0.520770000000     0.564380000000     0.477620000000    -0.369703   
O146     O      0.520840000000     0.257400000000     0.094190000000    -0.367784   
O147     O      0.565950000000     0.604540000000     0.098200000000    -0.383751   
O148     O      0.555260000000     0.229160000000     0.470170000000    -0.381773   
O149     O      0.540960000000     0.267790000000     0.522700000000    -0.367988   
O150     O      0.550950000000     0.559680000000     0.049430000000    -0.369981   
O151     O      0.549760000000     0.623500000000     0.451810000000    -0.380997   
O152     O      0.548540000000     0.198660000000     0.122290000000    -0.376491   
O153     O      0.029530000000     0.661180000000     0.036850000000    -0.604294   
O154     O      0.780970000000     0.468130000000     0.217110000000    -0.349724   
O155     O      0.782040000000     0.344380000000     0.372830000000    -0.343754   
O156     O      0.805990000000     0.467990000000     0.337580000000    -0.373193   
O157     O      0.808120000000     0.344870000000     0.248110000000    -0.371628   
O158     O      0.791020000000     0.412040000000     0.377840000000    -0.366739   
O159     O      0.790990000000     0.401770000000     0.209690000000    -0.364283   
O160     O      0.799230000000     0.310990000000     0.318870000000    -0.376087   
O161     O      0.788690000000     0.509260000000     0.269840000000    -0.376472   
O162     O      0.721760000000     0.367310000000     0.208860000000    -0.376429   
O163     O      0.720580000000     0.442470000000     0.379360000000    -0.381054   
O164     O      0.719360000000     0.506280000000     0.281730000000    -0.369932   
O165     O      0.729340000000     0.298180000000     0.308450000000    -0.368015   
O166     O      0.715050000000     0.336810000000     0.360990000000    -0.381768   
O167     O      0.704350000000     0.461430000000     0.232960000000    -0.383757   
O168     O      0.749460000000     0.308560000000     0.236960000000    -0.367821   
O169     O      0.749560000000     0.501580000000     0.353540000000    -0.369811   
O170     O      0.740770000000     0.404790000000     0.294310000000    -0.604598   
O171     O      0.981600000000     0.556720000000     0.561300000000    -0.376014   
O172     O      0.971070000000     0.254960000000     0.012270000000    -0.375497   
O173     O      0.979310000000     0.164190000000     0.621460000000    -0.363837   
O174     O      0.979310000000     0.653910000000     0.953290000000    -0.366307   
O175     O      0.962180000000     0.221100000000     0.583040000000    -0.371145   
O176     O      0.964330000000     0.597970000000     0.993550000000    -0.372917   
O177     O      0.988270000000     0.221580000000     0.958320000000    -0.3434     
O178     O      0.989320000000     0.597830000000     0.614040000000    -0.349273   
O179     O      0.520770000000     0.564380000000     0.977620000000    -0.36981    
O180     O      0.520840000000     0.257400000000     0.594190000000    -0.367785   
O181     O      0.565950000000     0.604540000000     0.598200000000    -0.383755   
O182     O      0.555260000000     0.229160000000     0.970170000000    -0.381721   
O183     O      0.540960000000     0.267790000000     0.022700000000    -0.367786   
O184     O      0.550950000000     0.559680000000     0.549430000000    -0.370004   
O185     O      0.549760000000     0.623500000000     0.951810000000    -0.381006   
O186     O      0.548540000000     0.198660000000     0.622290000000    -0.376497   
O187     O      0.029530000000     0.661180000000     0.536850000000    -0.604362   
O188     O      0.780970000000     0.468130000000     0.717100000000    -0.349567   
O189     O      0.782040000000     0.344380000000     0.872830000000    -0.343759   
O190     O      0.805990000000     0.467990000000     0.837580000000    -0.37319    
O191     O      0.808120000000     0.344870000000     0.748110000000    -0.371627   
O192     O      0.791020000000     0.412040000000     0.877840000000    -0.366747   
O193     O      0.790990000000     0.401770000000     0.709690000000    -0.364291   
O194     O      0.799230000000     0.310990000000     0.818870000000    -0.376086   
O195     O      0.788690000000     0.509260000000     0.769850000000    -0.376344   
O196     O      0.721760000000     0.367310000000     0.708860000000    -0.376424   
O197     O      0.720580000000     0.442470000000     0.879360000000    -0.381059   
O198     O      0.719360000000     0.506280000000     0.781730000000    -0.369935   
O199     O      0.729340000000     0.298180000000     0.808450000000    -0.367931   
O200     O      0.715050000000     0.336810000000     0.860990000000    -0.381821   
O201     O      0.704350000000     0.461430000000     0.732960000000    -0.383754   
O202     O      0.749460000000     0.308560000000     0.736960000000    -0.367821   
O203     O      0.749560000000     0.501580000000     0.853540000000    -0.369811   
O204     O      0.740770000000     0.404790000000     0.794310000000    -0.604591   
O205     O      0.981600000000     0.056720000000     0.061300000000    -0.375995   
O206     O      0.971070000000     0.754960000000     0.512270000000    -0.375755   
O207     O      0.979310000000     0.664190000000     0.121460000000    -0.363853   
O208     O      0.979310000000     0.153910000000     0.453290000000    -0.366292   
O209     O      0.962180000000     0.721100000000     0.083040000000    -0.371156   
O210     O      0.964330000000     0.097970000000     0.493550000000    -0.372801   
O211     O      0.988270000000     0.721580000000     0.458320000000    -0.34342    
O212     O      0.989320000000     0.097840000000     0.114040000000    -0.349221   
O213     O      0.520770000000     0.064380000000     0.477620000000    -0.369719   
O214     O      0.520840000000     0.757400000000     0.094190000000    -0.367877   
O215     O      0.565950000000     0.104540000000     0.098200000000    -0.383755   
O216     O      0.555260000000     0.729160000000     0.470170000000    -0.38173    
O217     O      0.540960000000     0.767790000000     0.522700000000    -0.368045   
O218     O      0.550950000000     0.059680000000     0.049430000000    -0.370005   
O219     O      0.549760000000     0.123500000000     0.451810000000    -0.380964   
O220     O      0.548540000000     0.698660000000     0.122290000000    -0.376423   
O221     O      0.029530000000     0.161180000000     0.036850000000    -0.60429    
O222     O      0.780970000000     0.968130000000     0.217110000000    -0.349963   
O223     O      0.782040000000     0.844370000000     0.372830000000    -0.343796   
O224     O      0.805990000000     0.967990000000     0.337580000000    -0.373219   
O225     O      0.808120000000     0.844870000000     0.248110000000    -0.371592   
O226     O      0.791020000000     0.912040000000     0.377840000000    -0.366806   
O227     O      0.790990000000     0.901770000000     0.209690000000    -0.364342   
O228     O      0.799230000000     0.810990000000     0.318870000000    -0.376115   
O229     O      0.788690000000     0.009260000000     0.269840000000    -0.376369   
O230     O      0.721760000000     0.867310000000     0.208860000000    -0.376442   
O231     O      0.720580000000     0.942470000000     0.379360000000    -0.380944   
O232     O      0.719360000000     0.006280000000     0.281730000000    -0.36954    
O233     O      0.729340000000     0.798180000000     0.308450000000    -0.368013   
O234     O      0.715050000000     0.836810000000     0.360990000000    -0.38177    
O235     O      0.704350000000     0.961430000000     0.232960000000    -0.383697   
O236     O      0.749460000000     0.808560000000     0.236960000000    -0.367818   
O237     O      0.749560000000     0.001590000000     0.353540000000    -0.369294   
O238     O      0.740770000000     0.904790000000     0.294310000000    -0.604557   
O239     O      0.981600000000     0.056720000000     0.561300000000    -0.376012   
O240     O      0.971070000000     0.754960000000     0.012270000000    -0.375547   
O241     O      0.979310000000     0.664190000000     0.621460000000    -0.363854   
O242     O      0.979310000000     0.153910000000     0.953290000000    -0.366293   
O243     O      0.962180000000     0.721100000000     0.583040000000    -0.371167   
O244     O      0.964330000000     0.097970000000     0.993550000000    -0.372918   
O245     O      0.988270000000     0.721580000000     0.958320000000    -0.343364   
O246     O      0.989320000000     0.097840000000     0.614040000000    -0.349216   
O247     O      0.520770000000     0.064380000000     0.977620000000    -0.369825   
O248     O      0.520840000000     0.757400000000     0.594190000000    -0.367878   
O249     O      0.565950000000     0.104540000000     0.598200000000    -0.383759   
O250     O      0.555260000000     0.729160000000     0.970170000000    -0.381678   
O251     O      0.540960000000     0.767790000000     0.022700000000    -0.367842   
O252     O      0.550950000000     0.059680000000     0.549430000000    -0.370027   
O253     O      0.549760000000     0.123500000000     0.951810000000    -0.380973   
O254     O      0.548540000000     0.698660000000     0.622290000000    -0.376429   
O255     O      0.029530000000     0.161180000000     0.536850000000    -0.604358   
O256     O      0.780970000000     0.968130000000     0.717100000000    -0.349805   
O257     O      0.782040000000     0.844370000000     0.872830000000    -0.3438     
O258     O      0.805990000000     0.967990000000     0.837580000000    -0.373216   
O259     O      0.808120000000     0.844870000000     0.748110000000    -0.371591   
O260     O      0.791020000000     0.912040000000     0.877840000000    -0.366813   
O261     O      0.790990000000     0.901770000000     0.709690000000    -0.36435    
O262     O      0.799230000000     0.810990000000     0.818870000000    -0.376114   
O263     O      0.788690000000     0.009260000000     0.769850000000    -0.376242   
O264     O      0.721760000000     0.867310000000     0.708860000000    -0.376437   
O265     O      0.720580000000     0.942470000000     0.879360000000    -0.38095    
O266     O      0.719360000000     0.006280000000     0.781730000000    -0.369542   
O267     O      0.729340000000     0.798180000000     0.808450000000    -0.367929   
O268     O      0.715050000000     0.836810000000     0.860990000000    -0.381823   
O269     O      0.704350000000     0.961430000000     0.732960000000    -0.383695   
O270     O      0.749460000000     0.808560000000     0.736960000000    -0.367819   
O271     O      0.749560000000     0.001590000000     0.853540000000    -0.369294   
O272     O      0.740770000000     0.904790000000     0.794310000000    -0.604551   


