data_structure

_audit_creation_method RASPA-1.0
_audit_creation_date 2023-6-4
_audit_author_name 'Poobodin Mano'

_cell_length_a    31.7896
_cell_length_b    31.6659
_cell_length_c    32.5937
_cell_angle_alpha 87.1298
_cell_angle_beta  93.8242
_cell_angle_gamma 120.435
_cell_volume      28221.2

_symmetry_cell_setting          triclinic
_symmetry_space_group_name_Hall 'P 1'
_symmetry_space_group_name_H-M  'P 1'
_symmetry_Int_Tables_number     1

_symmetry_equiv_pos_as_xyz 'x,y,z'

loop_
_atom_site_label
_atom_site_type_symbol
_atom_site_fract_x
_atom_site_fract_y
_atom_site_fract_z
_atom_site_charge
C1       C      0.038050000000     0.134500000000     0.001880000000     0.51623    
C2       C      0.945420000000     0.948470000000     0.006050000000     0.48141    
C3       C      0.040930000000     0.020980000000     0.933330000000     0.508161   
C4       C      0.982590000000     0.086410000000     0.100280000000     0.44728    
C5       C      0.059370000000     0.042980000000     0.140070000000     0.476834   
C6       C      0.150090000000     0.037410000000     0.995050000000     0.504939   
C7       C      0.150480000000     0.152810000000     0.052120000000     0.509244   
C8       C      0.017390000000     0.924460000000     0.076260000000     0.475669   
C9       C      0.030310000000     0.052910000000     0.430970000000     0.509667   
C10      C      0.038080000000     0.133840000000     0.583970000000     0.520609   
C11      C      0.918010000000     0.015670000000     0.495090000000     0.432266   
C12      C      0.146520000000     0.131230000000     0.522550000000     0.5442     
C13      C      0.124030000000     0.012630000000     0.559660000000     0.528307   
C14      C      0.936530000000     0.936320000000     0.565620000000     0.472735   
C15      C      0.989450000000     0.926580000000     0.457880000000     0.434656   
C16      C      0.013300000000     0.021640000000     0.637160000000     0.469471   
C17      C      0.972540000000     0.437100000000     0.987870000000     0.480712   
C18      C      0.040880000000     0.641430000000     0.038010000000     0.466479   
C19      C      0.960430000000     0.552660000000     0.073630000000     0.499266   
C20      C      0.054760000000     0.529940000000     0.941750000000     0.49478    
C21      C      0.161450000000     0.576500000000     0.013430000000     0.492742   
C22      C      0.021520000000     0.499250000000     0.141050000000     0.480367   
C23      C      0.030600000000     0.426300000000     0.077980000000     0.456716   
C24      C      0.154000000000     0.647610000000     0.068850000000     0.47926    
C25      C      0.923530000000     0.448000000000     0.497600000000     0.510294   
C26      C      0.023860000000     0.647850000000     0.496060000000     0.499982   
C27      C      0.931200000000     0.545580000000     0.584750000000     0.534431   
C28      C      0.039130000000     0.517230000000     0.436680000000     0.466272   
C29      C      0.121090000000     0.545110000000     0.530670000000     0.459232   
C30      C      0.028370000000     0.534300000000     0.641860000000     0.526787   
C31      C      0.010650000000     0.413570000000     0.544800000000     0.432311   
C32      C      0.127950000000     0.655380000000     0.554880000000     0.521412   
C33      C      0.469470000000     0.063150000000     0.008180000000     0.464335   
C34      C      0.559600000000     0.942350000000     0.034100000000     0.508931   
C35      C      0.563720000000     0.079050000000     0.955660000000     0.467254   
C36      C      0.464380000000     0.955860000000     0.107180000000     0.48308    
C37      C      0.558840000000     0.061960000000     0.161200000000     0.559823   
C38      C      0.663560000000     0.142190000000     0.029320000000     0.460956   
C39      C      0.513010000000     0.133230000000     0.094000000000     0.432931   
C40      C      0.665430000000     0.048180000000     0.078440000000     0.476833   
C41      C      0.441130000000     0.052430000000     0.522060000000     0.46846    
C42      C      0.567400000000     0.978570000000     0.502220000000     0.378486   
C43      C      0.526880000000     0.067920000000     0.457830000000     0.4752     
C44      C      0.433830000000     0.962060000000     0.602730000000     0.396685   
C45      C      0.548090000000     0.048770000000     0.657350000000     0.484052   
C46      C      0.634800000000     0.160400000000     0.501030000000     0.478365   
C47      C      0.508650000000     0.140510000000     0.598440000000     0.479418   
C48      C      0.647100000000     0.054280000000     0.574250000000     0.500084   
C49      C      0.467400000000     0.430560000000     0.994550000000     0.44199    
C50      C      0.577660000000     0.659400000000     0.996120000000     0.48321    
C51      C      0.448230000000     0.559520000000     0.040450000000     0.5037     
C52      C      0.566640000000     0.540900000000     0.933190000000     0.503616   
C53      C      0.678740000000     0.581070000000     0.999910000000     0.397704   
C54      C      0.514410000000     0.535540000000     0.129440000000     0.503028   
C55      C      0.539480000000     0.447440000000     0.083270000000     0.450638   
C56      C      0.650460000000     0.642480000000     0.073890000000     0.49591    
C57      C      0.420060000000     0.451500000000     0.492070000000     0.478154   
C58      C      0.549640000000     0.663570000000     0.489370000000     0.504089   
C59      C      0.425600000000     0.540400000000     0.573760000000     0.493963   
C60      C      0.543770000000     0.542220000000     0.429040000000     0.484005   
C61      C      0.617740000000     0.527090000000     0.518510000000     0.503614   
C62      C      0.532730000000     0.552280000000     0.629670000000     0.471198   
C63      C      0.464390000000     0.413990000000     0.580090000000     0.430793   
C64      C      0.625790000000     0.648230000000     0.568640000000     0.512069   
C65      C      0.570000000000     0.585420000000     0.870660000000     0.418004   
C66      C      0.542130000000     0.500480000000     0.868810000000     0.0991803  
C67      C      0.566740000000     0.587910000000     0.827730000000    -0.209903   
C68      C      0.537110000000     0.582330000000     0.737590000000    -0.073286   
C69      C      0.537680000000     0.501690000000     0.825740000000    -0.115653   
C70      C      0.547880000000     0.548730000000     0.758340000000     0.0210677  
C71      C      0.550750000000     0.545970000000     0.804420000000     0.0957923  
C72      C      0.534330000000     0.584430000000     0.694620000000     0.0795926  
C73      C      0.552260000000     0.520680000000     0.691450000000     0.0811557  
C74      C      0.556190000000     0.518190000000     0.734460000000    -0.0729718  
C75      C      0.473830000000     0.492030000000     0.190800000000     0.414551   
C76      C      0.552830000000     0.562900000000     0.194930000000     0.100743   
C77      C      0.473010000000     0.489380000000     0.233970000000    -0.209633   
C78      C      0.507660000000     0.486800000000     0.327190000000    -0.0759599  
C79      C      0.552840000000     0.561570000000     0.237420000000    -0.122884   
C80      C      0.512960000000     0.526510000000     0.302680000000     0.0180913  
C81      C      0.512440000000     0.525290000000     0.257430000000     0.0960482  
C82      C      0.517380000000     0.492410000000     0.369670000000     0.0777611  
C83      C      0.534390000000     0.574530000000     0.363980000000     0.0769069  
C84      C      0.525260000000     0.570280000000     0.321590000000    -0.0747177  
C85      C      0.592510000000     0.747740000000     0.465490000000     0.411492   
C86      C      0.512380000000     0.712100000000     0.488710000000     0.094152   
C87      C      0.595030000000     0.793410000000     0.460380000000    -0.20707    
C88      C      0.604360000000     0.893020000000     0.471960000000    -0.0713953  
C89      C      0.514420000000     0.757080000000     0.485450000000    -0.119142   
C90      C      0.559270000000     0.848550000000     0.471010000000     0.015283   
C91      C      0.556110000000     0.799230000000     0.471370000000     0.0909789  
C92      C      0.606120000000     0.937520000000     0.478200000000     0.0669641  
C93      C      0.520230000000     0.895990000000     0.482030000000     0.0677272  
C94      C      0.516840000000     0.851710000000     0.473170000000    -0.0738362  
C95      C      0.533230000000     0.220880000000     0.620040000000     0.41394    
C96      C      0.449290000000     0.159700000000     0.617700000000     0.0965033  
C97      C      0.521330000000     0.256940000000     0.625330000000    -0.213805   
C98      C      0.469700000000     0.302660000000     0.572680000000    -0.077926   
C99      C      0.436100000000     0.195310000000     0.622000000000    -0.11964    
C100     C      0.461110000000     0.283780000000     0.612720000000     0.0176154  
C101     C      0.472430000000     0.244720000000     0.623910000000     0.0957318  
C102     C      0.468310000000     0.344920000000     0.562280000000     0.0781739  
C103     C      0.445730000000     0.348520000000     0.629360000000     0.0739062  
C104     C      0.447680000000     0.306080000000     0.641200000000    -0.0717028  
C105     C      0.587420000000     0.122370000000     0.890900000000     0.414184   
C106     C      0.549280000000     0.035710000000     0.894250000000     0.0912842  
C107     C      0.591130000000     0.121820000000     0.848310000000    -0.207968   
C108     C      0.558700000000     0.101490000000     0.757380000000    -0.072418   
C109     C      0.552990000000     0.034050000000     0.852090000000    -0.113268   
C110     C      0.574470000000     0.075070000000     0.783100000000     0.0210774  
C111     C      0.574000000000     0.077310000000     0.828500000000     0.0937459  
C112     C      0.552180000000     0.093660000000     0.715140000000     0.0827857  
C113     C      0.580050000000     0.036860000000     0.722490000000     0.0772652  
C114     C      0.586440000000     0.043390000000     0.765100000000    -0.0739486  
C115     C      0.534820000000     0.092690000000     0.215520000000     0.428858   
C116     C      0.578260000000     0.050760000000     0.230910000000     0.105573   
C117     C      0.526330000000     0.091790000000     0.257250000000    -0.211662   
C118     C      0.532820000000     0.104430000000     0.349420000000    -0.0747448  
C119     C      0.570720000000     0.049630000000     0.272710000000    -0.12132    
C120     C      0.532840000000     0.065640000000     0.330710000000     0.01849    
C121     C      0.543150000000     0.068860000000     0.286340000000     0.0982931  
C122     C      0.527370000000     0.102850000000     0.391640000000     0.076812   
C123     C      0.519280000000     0.024210000000     0.397540000000     0.0768733  
C124     C      0.524380000000     0.024470000000     0.355160000000    -0.0742476  
C125     C      0.547130000000     0.887780000000     0.979960000000     0.411665   
C126     C      0.590100000000     0.887790000000     0.042390000000     0.0993671  
C127     C      0.554320000000     0.851480000000     0.964520000000    -0.211139   
C128     C      0.626330000000     0.789570000000     0.978900000000    -0.0772232  
C129     C      0.598980000000     0.852740000000     0.027440000000    -0.121799   
C130     C      0.582490000000     0.790460000000     0.976100000000     0.0197954  
C131     C      0.580730000000     0.833880000000     0.988300000000     0.0946001  
C132     C      0.624830000000     0.744500000000     0.979590000000     0.0821267  
C133     C      0.538380000000     0.702620000000     0.972070000000     0.0838729  
C134     C      0.538570000000     0.746670000000     0.969610000000    -0.0773598  
C135     C      0.551140000000     0.209070000000     0.128330000000     0.436592   
C136     C      0.469380000000     0.175040000000     0.102020000000     0.103138   
C137     C      0.553750000000     0.253430000000     0.135280000000    -0.213465   
C138     C      0.569040000000     0.352080000000     0.111030000000    -0.0732115  
C139     C      0.471510000000     0.220040000000     0.107090000000    -0.114156   
C140     C      0.522870000000     0.311860000000     0.119640000000     0.0168903  
C141     C      0.515140000000     0.260880000000     0.122020000000     0.0973117  
C142     C      0.575020000000     0.398500000000     0.102920000000     0.0724813  
C143     C      0.491730000000     0.368180000000     0.114360000000     0.0707579  
C144     C      0.484410000000     0.321040000000     0.122830000000    -0.0729837  
C145     C      0.877900000000     0.390080000000     0.444610000000     0.41762    
C146     C      0.838730000000     0.414660000000     0.489260000000     0.10562    
C147     C      0.832890000000     0.348790000000     0.433450000000    -0.206634   
C148     C      0.748130000000     0.246330000000     0.452010000000    -0.0676663  
C149     C      0.793700000000     0.374550000000     0.478730000000    -0.113095   
C150     C      0.745530000000     0.289440000000     0.452250000000     0.0239482  
C151     C      0.790550000000     0.338860000000     0.452810000000     0.0969038  
C152     C      0.708550000000     0.201620000000     0.464940000000     0.088731   
C153     C      0.663910000000     0.240990000000     0.476160000000     0.0868338  
C154     C      0.700810000000     0.284950000000     0.460680000000    -0.0762531  
C155     C      0.205030000000     0.721710000000     0.535200000000     0.417254   
C156     C      0.183320000000     0.711540000000     0.604870000000     0.0990434  
C157     C      0.248450000000     0.764690000000     0.544750000000    -0.219255   
C158     C      0.348960000000     0.832620000000     0.584040000000    -0.0751842  
C159     C      0.226140000000     0.755100000000     0.615200000000    -0.12469    
C160     C      0.304880000000     0.827760000000     0.594440000000     0.0131145  
C161     C      0.258960000000     0.782050000000     0.584840000000     0.0977026  
C162     C      0.391840000000     0.877400000000     0.588600000000     0.0711719  
C163     C      0.348740000000     0.912550000000     0.614710000000     0.067692   
C164     C      0.304920000000     0.867770000000     0.610910000000    -0.0743118  
C165     C      0.844120000000     0.498270000000     0.589500000000     0.416531   
C166     C      0.883890000000     0.584210000000     0.577700000000     0.102166   
C167     C      0.798510000000     0.494710000000     0.582240000000    -0.212082   
C168     C      0.704360000000     0.498900000000     0.575430000000    -0.0710344  
C169     C      0.839120000000     0.582010000000     0.571300000000    -0.120178   
C170     C      0.748430000000     0.533380000000     0.558080000000     0.0257388  
C171     C      0.795680000000     0.536680000000     0.571560000000     0.0971135  
C172     C      0.660650000000     0.496600000000     0.561430000000     0.0889689  
C173     C      0.703100000000     0.561650000000     0.513770000000     0.0990399  
C174     C      0.747080000000     0.564520000000     0.526570000000    -0.0715075  
C175     C      0.342010000000     0.503120000000     0.592270000000     0.414259   
C176     C      0.385430000000     0.585390000000     0.567860000000     0.103213   
C177     C      0.298100000000     0.504080000000     0.587900000000    -0.208304   
C178     C      0.211030000000     0.520330000000     0.585400000000    -0.0743109  
C179     C      0.343140000000     0.588070000000     0.564470000000    -0.122213   
C180     C      0.252170000000     0.547690000000     0.562190000000     0.0168417  
C181     C      0.298180000000     0.546520000000     0.572220000000     0.0939731  
C182     C      0.168090000000     0.520930000000     0.574770000000     0.0746892  
C183     C      0.205450000000     0.576570000000     0.519470000000     0.0745267  
C184     C      0.248890000000     0.576220000000     0.528870000000    -0.0720191  
C185     C      0.022000000000     0.541790000000     0.877060000000     0.420891   
C186     C      0.069320000000     0.502820000000     0.880390000000     0.110489   
C187     C      0.020110000000     0.541420000000     0.834340000000    -0.214088   
C188     C      0.055380000000     0.570610000000     0.749030000000    -0.0782639  
C189     C      0.067950000000     0.501830000000     0.837510000000    -0.116784   
C190     C      0.045940000000     0.526710000000     0.768870000000     0.0212533  
C191     C      0.044410000000     0.522710000000     0.814140000000     0.100352   
C192     C      0.051520000000     0.573030000000     0.706390000000     0.0818758  
C193     C      0.032250000000     0.490450000000     0.702260000000     0.0798597  
C194     C      0.035870000000     0.486760000000     0.745110000000    -0.0759488  
C195     C      0.974610000000     0.462690000000     0.200860000000     0.420769   
C196     C      0.060820000000     0.498820000000     0.205340000000     0.0983303  
C197     C      0.973440000000     0.457740000000     0.243820000000    -0.205428   
C198     C      0.044690000000     0.465170000000     0.340370000000    -0.0708673  
C199     C      0.060710000000     0.493350000000     0.248060000000    -0.114851   
C200     C      0.018140000000     0.479680000000     0.313030000000     0.0238127  
C201     C      0.016990000000     0.474640000000     0.267890000000     0.0953164  
C202     C      0.050130000000     0.476450000000     0.382180000000     0.0898915  
C203     C      0.004140000000     0.516250000000     0.370000000000     0.0870546  
C204     C      0.996940000000     0.504530000000     0.328530000000    -0.0688169  
C205     C      0.930700000000     0.350500000000     0.976890000000     0.414046   
C206     C      0.886990000000     0.392910000000     0.975120000000     0.0974712  
C207     C      0.887270000000     0.305730000000     0.981990000000    -0.211954   
C208     C      0.782620000000     0.215100000000     0.983660000000    -0.0732889  
C209     C      0.843260000000     0.349210000000     0.979890000000    -0.118691   
C210     C      0.798890000000     0.260960000000     0.000370000000     0.018766   
C211     C      0.843550000000     0.305410000000     0.986440000000     0.0961306  
C212     C      0.738110000000     0.175050000000     0.995150000000     0.0803491  
C213     C      0.727450000000     0.224000000000     0.041370000000     0.0777978  
C214     C      0.771510000000     0.264720000000     0.030480000000    -0.071928   
C215     C      0.225310000000     0.691040000000     0.114690000000     0.408651   
C216     C      0.215770000000     0.728620000000     0.052820000000     0.0994377  
C217     C      0.269380000000     0.734390000000     0.124690000000    -0.205583   
C218     C      0.332710000000     0.867590000000     0.102750000000    -0.0745185  
C219     C      0.258610000000     0.772180000000     0.062250000000    -0.117545   
C220     C      0.331830000000     0.822890000000     0.107730000000     0.019309   
C221     C      0.285890000000     0.775870000000     0.098620000000     0.0928862  
C222     C      0.377160000000     0.911910000000     0.104910000000     0.0765901  
C223     C      0.419940000000     0.869080000000     0.118460000000     0.0763489  
C224     C      0.375990000000     0.824070000000     0.117060000000    -0.0740589  
C225     C      0.915900000000     0.588410000000     0.098890000000     0.412342   
C226     C      0.913940000000     0.574660000000     0.027740000000     0.100133   
C227     C      0.879860000000     0.601660000000     0.091170000000    -0.20764    
C228     C      0.812310000000     0.635460000000     0.013310000000    -0.0762486  
C229     C      0.880290000000     0.589840000000     0.018920000000    -0.118831   
C230     C      0.815230000000     0.602070000000     0.041730000000     0.0149135  
C231     C      0.861200000000     0.601470000000     0.050760000000     0.0922358  
C232     C      0.766380000000     0.628470000000     0.999370000000     0.0658538  
C233     C      0.727200000000     0.555480000000     0.039720000000     0.0730981  
C234     C      0.772020000000     0.562270000000     0.055210000000    -0.0750281  
C235     C      0.236270000000     0.612550000000     0.978640000000     0.415939   
C236     C      0.233160000000     0.589190000000     0.049300000000     0.102001   
C237     C      0.283360000000     0.619400000000     0.977610000000    -0.210417   
C238     C      0.348530000000     0.570670000000     0.988710000000    -0.0759732  
C239     C      0.280320000000     0.597540000000     0.049740000000    -0.117693   
C240     C      0.349080000000     0.606540000000     0.012500000000     0.0192952  
C241     C      0.304910000000     0.610320000000     0.013250000000     0.0948103  
C242     C      0.383040000000     0.556190000000     0.997540000000     0.0786272  
C243     C      0.420540000000     0.614890000000     0.050300000000     0.079348   
C244     C      0.386670000000     0.630090000000     0.042400000000    -0.080243   
C245     C      0.708020000000     0.676980000000     0.592670000000     0.418098   
C246     C      0.674720000000     0.729020000000     0.593860000000     0.104073   
C247     C      0.754940000000     0.716360000000     0.600790000000    -0.211894   
C248     C      0.848570000000     0.806010000000     0.577920000000    -0.0691877  
C249     C      0.721450000000     0.769520000000     0.600890000000    -0.11541    
C250     C      0.813030000000     0.807430000000     0.600400000000     0.0201248  
C251     C      0.762690000000     0.763920000000     0.602320000000     0.097714   
C252     C      0.892110000000     0.849140000000     0.569560000000     0.0828026  
C253     C      0.868010000000     0.894760000000     0.607270000000     0.0760084  
C254     C      0.824590000000     0.852280000000     0.616920000000    -0.0751245  
C255     C      0.205040000000     0.185360000000     0.473610000000     0.432697   
C256     C      0.194420000000     0.216180000000     0.534390000000     0.110545   
C257     C      0.238560000000     0.233370000000     0.460500000000    -0.203803   
C258     C      0.328610000000     0.335030000000     0.450860000000    -0.0721879  
C259     C      0.228400000000     0.263740000000     0.522910000000    -0.120023   
C260     C      0.289210000000     0.325170000000     0.474610000000     0.0196748  
C261     C      0.250680000000     0.273630000000     0.485200000000     0.0995804  
C262     C      0.370510000000     0.381650000000     0.451380000000     0.074648   
C263     C      0.333970000000     0.410340000000     0.494740000000     0.080761   
C264     C      0.290620000000     0.365240000000     0.492950000000    -0.0688167  
C265     C      0.726930000000     0.091270000000     0.548240000000     0.423333   
C266     C      0.693240000000     0.014200000000     0.582820000000     0.0996358  
C267     C      0.763730000000     0.084900000000     0.533870000000    -0.212752   
C268     C      0.849470000000     0.073980000000     0.519000000000    -0.0600721  
C269     C      0.730260000000     0.007240000000     0.569760000000    -0.119742   
C270     C      0.803450000000     0.033910000000     0.527150000000     0.0158898  
C271     C      0.765180000000     0.041880000000     0.543550000000     0.0993315  
C272     C      0.885680000000     0.066670000000     0.505290000000     0.0806998  
C273     C      0.832850000000     0.980640000000     0.506650000000     0.0733671  
C274     C      0.794980000000     0.986690000000     0.519630000000    -0.0711731  
C275     C      0.205460000000     0.036950000000     0.584680000000     0.420335   
C276     C      0.164070000000     0.972380000000     0.537140000000     0.100121   
C277     C      0.249580000000     0.039470000000     0.577980000000    -0.213559   
C278     C      0.309720000000     0.980670000000     0.535830000000    -0.0758378  
C279     C      0.207540000000     0.973570000000     0.530200000000    -0.121245   
C280     C      0.298840000000     0.018280000000     0.536150000000     0.0187188  
C281     C      0.251220000000     0.009270000000     0.549000000000     0.0973124  
C282     C      0.357010000000     0.992000000000     0.527580000000     0.0777854  
C283     C      0.380740000000     0.075520000000     0.515940000000     0.0780716  
C284     C      0.334300000000     0.065680000000     0.524490000000    -0.0770318  
C285     C      0.945860000000     0.841710000000     0.440240000000     0.414353   
C286     C      0.032380000000     0.887710000000     0.439640000000     0.0983257  
C287     C      0.946640000000     0.798100000000     0.437910000000    -0.211461   
C288     C      0.999090000000     0.726470000000     0.423720000000    -0.0736094  
C289     C      0.034280000000     0.844940000000     0.436720000000    -0.121715   
C290     C      0.994400000000     0.756080000000     0.451340000000     0.0170078  
C291     C      0.991310000000     0.799570000000     0.438140000000     0.0964902  
C292     C      0.007100000000     0.688700000000     0.438970000000     0.0750929  
C293     C      0.005570000000     0.709830000000     0.507480000000     0.0766528  
C294     C      0.996710000000     0.746840000000     0.493430000000    -0.0777131  
C295     C      0.991990000000     0.172160000000     0.591020000000     0.427306   
C296     C      0.075990000000     0.212740000000     0.612860000000     0.106794   
C297     C      0.990180000000     0.214430000000     0.595930000000    -0.22001    
C298     C      0.056710000000     0.329120000000     0.560000000000    -0.0749788  
C299     C      0.076010000000     0.256670000000     0.616170000000    -0.122837   
C300     C      0.034060000000     0.303880000000     0.595670000000     0.017965   
C301     C      0.033020000000     0.257770000000     0.606030000000     0.101074   
C302     C      0.047630000000     0.365040000000     0.543110000000     0.0781314  
C303     C      0.997100000000     0.354130000000     0.597840000000     0.0801269  
C304     C      0.004130000000     0.316640000000     0.614890000000    -0.0775441  
C305     C      0.011200000000     0.039970000000     0.869820000000     0.422041   
C306     C      0.021750000000     0.970860000000     0.875030000000     0.103297   
C307     C      0.999750000000     0.032740000000     0.827770000000    -0.207145   
C308     C      0.965430000000     0.003970000000     0.739520000000    -0.0751835  
C309     C      0.010570000000     0.962790000000     0.832900000000    -0.117623   
C310     C      0.997170000000     0.992570000000     0.762880000000     0.0219404  
C311     C      0.000820000000     0.994830000000     0.808510000000     0.0956795  
C312     C      0.969360000000     0.010910000000     0.696940000000     0.0762865  
C313     C      0.032660000000     0.991900000000     0.699700000000     0.0753885  
C314     C      0.029710000000     0.984640000000     0.742200000000    -0.0750207  
C315     C      0.075050000000     0.101640000000     0.374250000000     0.421915   
C316     C      0.992930000000     0.038110000000     0.363720000000     0.101473   
C317     C      0.083290000000     0.102120000000     0.332630000000    -0.208902   
C318     C      0.088650000000     0.100740000000     0.239560000000    -0.0702951  
C319     C      0.999880000000     0.037720000000     0.321860000000    -0.114853   
C320     C      0.056960000000     0.060870000000     0.264140000000     0.0210204  
C321     C      0.046470000000     0.067610000000     0.306450000000     0.0960989  
C322     C      0.094100000000     0.093380000000     0.198710000000     0.07816    
C323     C      0.041300000000     0.007850000000     0.207100000000     0.081174   
C324     C      0.035370000000     0.013780000000     0.248020000000    -0.0728437  
C325     C      0.860600000000     0.908460000000     0.018370000000     0.42107    
C326     C      0.894020000000     0.863220000000     0.993820000000     0.100809   
C327     C      0.820150000000     0.865460000000     0.031680000000    -0.211544   
C328     C      0.732210000000     0.772000000000     0.055080000000    -0.0759445  
C329     C      0.852930000000     0.819150000000     0.005360000000    -0.119188   
C330     C      0.775150000000     0.773590000000     0.044790000000     0.0210784  
C331     C      0.816490000000     0.819730000000     0.027120000000     0.0962703  
C332     C      0.693350000000     0.728970000000     0.069830000000     0.0824212  
C333     C      0.736880000000     0.687240000000     0.065600000000     0.0797891  
C334     C      0.777850000000     0.730710000000     0.052380000000    -0.0727725  
C335     C      0.203970000000     0.238000000000     0.067200000000     0.428599   
C336     C      0.235220000000     0.185870000000     0.056040000000     0.109543   
C337     C      0.250710000000     0.279180000000     0.062190000000    -0.20279    
C338     C      0.337920000000     0.354960000000     0.015490000000    -0.0712401  
C339     C      0.281560000000     0.225530000000     0.050680000000    -0.116041   
C340     C      0.336740000000     0.314990000000     0.037090000000     0.0214705  
C341     C      0.289610000000     0.273160000000     0.051390000000     0.0992304  
C342     C      0.381560000000     0.392170000000     0.999850000000     0.0655234  
C343     C      0.422740000000     0.350280000000     0.023960000000     0.0758967  
C344     C      0.380190000000     0.313250000000     0.041200000000    -0.0752247  
C345     C      0.899130000000     0.049300000000     0.115810000000     0.428485   
C346     C      0.947620000000     0.135950000000     0.112670000000     0.0937857  
C347     C      0.856830000000     0.051810000000     0.116030000000    -0.213323   
C348     C      0.793130000000     0.087490000000     0.062170000000    -0.075719   
C349     C      0.905300000000     0.139700000000     0.112140000000    -0.119688   
C350     C      0.813350000000     0.096810000000     0.102420000000     0.0163408  
C351     C      0.859390000000     0.096930000000     0.111810000000     0.0980736  
C352     C      0.743840000000     0.072530000000     0.054500000000     0.0747656  
C353     C      0.735190000000     0.079230000000     0.125200000000     0.0742528  
C354     C      0.784290000000     0.093660000000     0.134030000000    -0.0749188  
C355     C      0.225260000000     0.069130000000     0.960320000000     0.413098   
C356     C      0.207110000000     0.012180000000     0.015800000000     0.0931465  
C357     C      0.270030000000     0.071210000000     0.956240000000    -0.206205   
C358     C      0.374620000000     0.091490000000     0.973510000000    -0.0731304  
C359     C      0.251270000000     0.013510000000     0.012550000000    -0.111812   
C360     C      0.332180000000     0.046550000000     0.980930000000     0.0200056  
C361     C      0.283640000000     0.043210000000     0.982560000000     0.0916037  
C362     C      0.420570000000     0.095500000000     0.979290000000     0.0755563  
C363     C      0.383740000000     0.011000000000     0.996390000000     0.0788163  
C364     C      0.337270000000     0.005560000000     0.990490000000    -0.0741542  
C365     C      0.050770000000     0.875650000000     0.058810000000     0.406136   
C366     C      0.965550000000     0.838540000000     0.067730000000     0.0982031  
C367     C      0.044480000000     0.831300000000     0.046800000000    -0.220707   
C368     C      0.995730000000     0.724070000000     0.004400000000    -0.0740767  
C369     C      0.958280000000     0.793080000000     0.056760000000    -0.12539    
C370     C      0.995100000000     0.742310000000     0.042490000000     0.0141798  
C371     C      0.998120000000     0.789680000000     0.045770000000     0.0975226  
C372     C      0.008190000000     0.687570000000     0.003110000000     0.0695347  
C373     C      0.018460000000     0.687750000000     0.075940000000     0.0798987  
C374     C      0.004240000000     0.722170000000     0.078410000000    -0.07476    
C375     C      0.070320000000     0.221400000000     0.997400000000     0.440917   
C376     C      0.989830000000     0.168500000000     0.018310000000     0.110617   
C377     C      0.068540000000     0.262080000000     0.010090000000    -0.197811   
C378     C      0.071510000000     0.339690000000     0.061770000000    -0.0689875  
C379     C      0.986740000000     0.208400000000     0.030810000000    -0.113372   
C380     C      0.027560000000     0.298420000000     0.048240000000     0.0291125  
C381     C      0.027480000000     0.255900000000     0.029430000000     0.104193   
C382     C      0.071660000000     0.381050000000     0.075280000000     0.0777087  
C383     C      0.985500000000     0.340110000000     0.067870000000     0.0948807  
C384     C      0.984030000000     0.298510000000     0.053350000000    -0.0571957  
Co1      Co     0.046300000000     0.087070000000     0.068520000000     1.03337    
Co2      Co     0.054280000000     0.980710000000     0.014090000000     1.11447    
Co3      Co     0.098450000000     0.091600000000     0.988750000000     1.16376    
Co4      Co     0.989240000000     0.996000000000     0.074400000000     1.01742    
Co5      Co     0.078450000000     0.029180000000     0.493230000000     1.04543    
Co6      Co     0.977160000000     0.044660000000     0.557750000000     1.13379    
Co7      Co     0.981750000000     0.979530000000     0.496400000000     1.04329    
Co8      Co     0.085070000000     0.075140000000     0.584810000000     1.16898    
Co9      Co     0.074410000000     0.493660000000     0.020820000000     1.08703    
Co10     Co     0.062780000000     0.582200000000     0.095730000000     1.07527    
Co11     Co     0.979700000000     0.482080000000     0.056410000000     1.11819    
Co12     Co     0.083210000000     0.598090000000     0.999590000000     1.10242    
Co13     Co     0.024830000000     0.487260000000     0.517580000000     1.0569     
Co14     Co     0.032410000000     0.603540000000     0.575410000000     1.20025    
Co15     Co     0.971150000000     0.480820000000     0.575050000000     1.03379    
Co16     Co     0.065920000000     0.591110000000     0.487850000000     1.07685    
Co17     Co     0.511450000000     0.058990000000     0.078440000000     1.05598    
Co18     Co     0.592930000000     0.035760000000     0.011690000000     1.10928    
Co19     Co     0.570450000000     0.121370000000     0.033780000000     0.896424   
Co20     Co     0.571350000000     0.001060000000     0.105650000000     1.18952    
Co21     Co     0.490670000000     0.041980000000     0.587120000000     1.14532    
Co22     Co     0.581330000000     0.056320000000     0.522100000000     1.09734    
Co23     Co     0.544230000000     0.129680000000     0.527980000000     1.13809    
Co24     Co     0.543760000000     0.000820000000     0.582790000000     0.804182   
Co25     Co     0.570340000000     0.493480000000     0.010140000000     0.950098   
Co26     Co     0.545930000000     0.601380000000     0.065980000000     1.18672    
Co27     Co     0.477440000000     0.491280000000     0.046750000000     1.07934    
Co28     Co     0.611110000000     0.587860000000     0.006880000000     1.05104    
Co29     Co     0.517980000000     0.480790000000     0.503250000000     1.0273     
Co30     Co     0.517480000000     0.602740000000     0.554630000000     1.10121    
Co31     Co     0.480310000000     0.493060000000     0.567650000000     1.05491    
Co32     Co     0.591480000000     0.599580000000     0.496700000000     1.12827    
F1       F      0.586160000000     0.627750000000     0.891070000000    -0.444759   
F2       F      0.434520000000     0.457330000000     0.168930000000    -0.453608   
F3       F      0.631620000000     0.744610000000     0.455400000000    -0.450369   
F4       F      0.581330000000     0.234950000000     0.619630000000    -0.442793   
F5       F      0.604630000000     0.166430000000     0.908670000000    -0.448466   
F6       F      0.515630000000     0.113370000000     0.188660000000    -0.437306   
F7       F      0.521060000000     0.903570000000     0.955870000000    -0.453573   
F8       F      0.590700000000     0.204830000000     0.140190000000    -0.428957   
F9       F      0.918730000000     0.396140000000     0.427950000000    -0.445138   
F10      F      0.196790000000     0.706330000000     0.495730000000    -0.459036   
F11      F      0.844820000000     0.456170000000     0.598000000000    -0.450813   
F12      F      0.340270000000     0.460670000000     0.604620000000    -0.448386   
F13      F      0.997740000000     0.560600000000     0.894930000000    -0.445303   
F14      F      0.931620000000     0.447590000000     0.178990000000    -0.441442   
F15      F      0.972830000000     0.349900000000     0.974000000000    -0.455407   
F16      F      0.210350000000     0.652060000000     0.141120000000    -0.45117    
F17      F      0.932050000000     0.587240000000     0.138340000000    -0.446861   
F18      F      0.215010000000     0.618870000000     0.943120000000    -0.451464   
F19      F      0.702700000000     0.631790000000     0.589810000000    -0.455296   
F20      F      0.194860000000     0.147810000000     0.448780000000    -0.426305   
F21      F      0.727390000000     0.133560000000     0.537680000000    -0.449878   
F22      F      0.206150000000     0.068360000000     0.612030000000    -0.454232   
F23      F      0.901670000000     0.838270000000     0.442410000000    -0.440252   
F24      F      0.949940000000     0.130920000000     0.579470000000    -0.48007    
F25      F      0.010270000000     0.077990000000     0.886490000000    -0.436386   
F26      F      0.112440000000     0.134530000000     0.398940000000    -0.424352   
F27      F      0.861870000000     0.951350000000     0.024150000000    -0.433527   
F28      F      0.166320000000     0.245220000000     0.073700000000    -0.436924   
F29      F      0.894060000000     0.003980000000     0.119450000000    -0.44189    
F30      F      0.214030000000     0.097080000000     0.934050000000    -0.446354   
F31      F      0.097160000000     0.914330000000     0.061340000000    -0.463072   
F32      F      0.111940000000     0.229730000000     0.980630000000    -0.429704   
H1       H      0.525220000000     0.610550000000     0.680160000000     0.0297262  
H2       H      0.532300000000     0.465580000000     0.883850000000     0.028662   
H3       H      0.565870000000     0.492460000000     0.748730000000     0.056417   
H4       H      0.523920000000     0.467890000000     0.809420000000     0.0674469  
H5       H      0.529620000000     0.606330000000     0.754240000000     0.0581058  
H6       H      0.577990000000     0.623200000000     0.813010000000     0.118083   
H7       H      0.558220000000     0.495830000000     0.674320000000     0.0378885  
H8       H      0.514100000000     0.461230000000     0.387680000000     0.0286214  
H9       H      0.585290000000     0.592290000000     0.181260000000     0.0284961  
H10      H      0.529340000000     0.601670000000     0.303460000000     0.0579413  
H11      H      0.584530000000     0.589180000000     0.254630000000     0.0691225  
H12      H      0.498440000000     0.452510000000     0.313460000000     0.0577671  
H13      H      0.441400000000     0.460350000000     0.248810000000     0.117793   
H14      H      0.544750000000     0.609420000000     0.377260000000     0.0413446  
H15      H      0.641700000000     0.970500000000     0.480920000000     0.0349185  
H16      H      0.479230000000     0.681410000000     0.500320000000     0.0199815  
H17      H      0.480650000000     0.820100000000     0.469550000000     0.0506451  
H18      H      0.483420000000     0.758150000000     0.495810000000     0.0602221  
H19      H      0.638580000000     0.893830000000     0.470220000000     0.0528486  
H20      H      0.627760000000     0.823820000000     0.448250000000     0.114913   
H21      H      0.486600000000     0.895920000000     0.486160000000     0.0329468  
H22      H      0.476730000000     0.358850000000     0.531000000000     0.0227048  
H23      H      0.420090000000     0.122120000000     0.613530000000     0.0296098  
H24      H      0.440840000000     0.292170000000     0.672550000000     0.0600402  
H25      H      0.397850000000     0.184690000000     0.620350000000     0.0712113  
H26      H      0.479740000000     0.285990000000     0.549850000000     0.0562945  
H27      H      0.550270000000     0.294940000000     0.626930000000     0.120402   
H28      H      0.437210000000     0.366440000000     0.652220000000     0.0406497  
H29      H      0.538250000000     0.113730000000     0.696590000000     0.0467462  
H30      H      0.532350000000     0.000980000000     0.911000000000     0.0505787  
H31      H      0.599490000000     0.022820000000     0.783950000000     0.057181   
H32      H      0.538270000000     0.998760000000     0.837920000000     0.071989   
H33      H      0.548980000000     0.126260000000     0.769960000000     0.0636601  
H34      H      0.607460000000     0.156100000000     0.830990000000     0.120928   
H35      H      0.588220000000     0.010950000000     0.709790000000     0.0328996  
H36      H      0.529200000000     0.134540000000     0.404830000000     0.0280054  
H37      H      0.598750000000     0.034150000000     0.221840000000     0.0227291  
H38      H      0.522590000000     0.992910000000     0.341840000000     0.0541699  
H39      H      0.586190000000     0.033300000000     0.294150000000     0.0667424  
H40      H      0.539120000000     0.136990000000     0.332010000000     0.0587064  
H41      H      0.505080000000     0.107470000000     0.266340000000     0.119763   
H42      H      0.514710000000     0.992580000000     0.415610000000     0.0330012  
H43      H      0.658880000000     0.744540000000     0.984730000000     0.0359377  
H44      H      0.604640000000     0.900830000000     0.073160000000     0.0228171  
H45      H      0.504030000000     0.745930000000     0.967010000000     0.0597949  
H46      H      0.618340000000     0.838960000000     0.047190000000     0.0647899  
H47      H      0.661080000000     0.823040000000     0.983500000000     0.0581544  
H48      H      0.538690000000     0.836670000000     0.934430000000     0.11793    
H49      H      0.503180000000     0.669000000000     0.970580000000     0.035913   
H50      H      0.610870000000     0.427560000000     0.094420000000     0.0312467  
H51      H      0.436410000000     0.145400000000     0.087790000000     0.0279267  
H52      H      0.448410000000     0.291800000000     0.130570000000     0.0538794  
H53      H      0.440280000000     0.223440000000     0.096710000000     0.0620504  
H54      H      0.600220000000     0.347600000000     0.107920000000     0.0586764  
H55      H      0.587070000000     0.282530000000     0.149410000000     0.121904   
H56      H      0.460430000000     0.373050000000     0.115400000000     0.0419535  
H57      H      0.712240000000     0.169360000000     0.466480000000     0.061701   
H58      H      0.839720000000     0.439320000000     0.511770000000     0.045372   
H59      H      0.695510000000     0.316190000000     0.458620000000     0.055885   
H60      H      0.762610000000     0.369720000000     0.494480000000     0.0742374  
H61      H      0.781550000000     0.247460000000     0.445190000000     0.0656353  
H62      H      0.831890000000     0.323340000000     0.411890000000     0.118243   
H63      H      0.631270000000     0.240070000000     0.485400000000     0.0223999  
H64      H      0.425050000000     0.879580000000     0.579390000000     0.031825   
H65      H      0.158460000000     0.691730000000     0.629160000000     0.0205461  
H66      H      0.271150000000     0.865040000000     0.619120000000     0.0526828  
H67      H      0.233680000000     0.767400000000     0.646660000000     0.0668404  
H68      H      0.350140000000     0.802150000000     0.571590000000     0.0544723  
H69      H      0.273540000000     0.784690000000     0.520670000000     0.117348   
H70      H      0.347500000000     0.943410000000     0.626240000000     0.0373455  
H71      H      0.627380000000     0.469810000000     0.575820000000     0.0348738  
H72      H      0.916510000000     0.620040000000     0.575560000000     0.0213696  
H73      H      0.779770000000     0.590790000000     0.511270000000     0.0576991  
H74      H      0.838830000000     0.615770000000     0.564990000000     0.0692145  
H75      H      0.703570000000     0.474270000000     0.600030000000     0.061826   
H76      H      0.765890000000     0.458880000000     0.583040000000     0.118515   
H77      H      0.704120000000     0.586820000000     0.489500000000     0.0349535  
H78      H      0.137140000000     0.498710000000     0.593620000000     0.0371746  
H79      H      0.419150000000     0.618150000000     0.559710000000     0.00938132 
H80      H      0.279290000000     0.597440000000     0.509350000000     0.0550779  
H81      H      0.345830000000     0.622470000000     0.554570000000     0.0634792  
H82      H      0.211800000000     0.498600000000     0.611850000000     0.0561122  
H83      H      0.264230000000     0.471020000000     0.594720000000     0.112736   
H84      H      0.204300000000     0.598540000000     0.493280000000     0.0446639  
H85      H      0.057890000000     0.607440000000     0.692340000000     0.0259607  
H86      H      0.089300000000     0.487740000000     0.897500000000     0.0373436  
H87      H      0.028750000000     0.452320000000     0.759500000000     0.0590912  
H88      H      0.086750000000     0.486570000000     0.822830000000     0.0723548  
H89      H      0.064680000000     0.602740000000     0.766420000000     0.0602597  
H90      H      0.000040000000     0.556290000000     0.817110000000     0.120967   
H91      H      0.022600000000     0.458280000000     0.684740000000     0.0325243  
H92      H      0.071330000000     0.465280000000     0.402480000000     0.0407614  
H93      H      0.095940000000     0.515530000000     0.191440000000     0.0431047  
H94      H      0.976740000000     0.516950000000     0.308330000000     0.0662923  
H95      H      0.095150000000     0.506790000000     0.265560000000     0.0710711  
H96      H      0.061780000000     0.446010000000     0.329370000000     0.0601751  
H97      H      0.938830000000     0.442560000000     0.258270000000     0.125176   
H98      H      0.988030000000     0.536700000000     0.380350000000     0.0420658  
H99      H      0.725930000000     0.140460000000     0.980490000000     0.0301384  
H100     H      0.885370000000     0.426370000000     0.972840000000     0.0336505  
H101     H      0.783700000000     0.299260000000     0.045170000000     0.0601193  
H102     H      0.809710000000     0.350130000000     0.980720000000     0.0720992  
H103     H      0.803070000000     0.210560000000     0.960710000000     0.0595015  
H104     H      0.888510000000     0.272150000000     0.985010000000     0.11068    
H105     H      0.706820000000     0.228910000000     0.063980000000     0.0470145  
H106     H      0.376100000000     0.945440000000     0.099530000000     0.0379778  
H107     H      0.196330000000     0.728340000000     0.024100000000     0.0299677  
H108     H      0.376920000000     0.790380000000     0.121050000000     0.0565682  
H109     H      0.270570000000     0.802880000000     0.040720000000     0.0686155  
H110     H      0.299240000000     0.868290000000     0.095930000000     0.0561647  
H111     H      0.289940000000     0.735740000000     0.152960000000     0.115102   
H112     H      0.453460000000     0.868170000000     0.124170000000     0.0300406  
H113     H      0.765150000000     0.654990000000     0.977710000000     0.0352693  
H114     H      0.926100000000     0.564170000000     0.001780000000     0.0488879  
H115     H      0.772790000000     0.534930000000     0.076130000000     0.0618541  
H116     H      0.866480000000     0.588780000000     0.987430000000     0.0718413  
H117     H      0.845210000000     0.666080000000     0.001400000000     0.0494209  
H118     H      0.865180000000     0.609920000000     0.116650000000     0.11619    
H119     H      0.694860000000     0.523470000000     0.050980000000     0.0378021  
H120     H      0.380400000000     0.526770000000     0.979840000000     0.0353157  
H121     H      0.214270000000     0.576830000000     0.077830000000     0.0496923  
H122     H      0.387950000000     0.657900000000     0.061380000000     0.0561772  
H123     H      0.295980000000     0.590360000000     0.077910000000     0.0734547  
H124     H      0.319460000000     0.551320000000     0.965650000000     0.061806   
H125     H      0.301890000000     0.629580000000     0.948960000000     0.11859    
H126     H      0.448150000000     0.632910000000     0.074760000000     0.0254092  
H127     H      0.917220000000     0.846760000000     0.550150000000     0.0449582  
H128     H      0.644250000000     0.735470000000     0.590240000000     0.0237609  
H129     H      0.799440000000     0.855130000000     0.635830000000     0.0522233  
H130     H      0.725100000000     0.805330000000     0.602110000000     0.0652798  
H131     H      0.841750000000     0.772510000000     0.564300000000     0.0629216  
H132     H      0.785200000000     0.709670000000     0.604020000000     0.114744   
H133     H      0.874380000000     0.929080000000     0.619020000000     0.0289578  
H134     H      0.401660000000     0.386430000000     0.435590000000     0.0282643  
H135     H      0.178490000000     0.211440000000     0.563900000000     0.0280984  
H136     H      0.259890000000     0.361130000000     0.508810000000     0.0599624  
H137     H      0.237670000000     0.292280000000     0.544600000000     0.0727188  
H138     H      0.329410000000     0.306300000000     0.434950000000     0.0560787  
H139     H      0.254590000000     0.238560000000     0.431090000000     0.121989   
H140     H      0.335560000000     0.438750000000     0.513210000000     0.0478704  
H141     H      0.920780000000     0.099100000000     0.499880000000     0.0585643  
H142     H      0.665720000000     0.985320000000     0.601480000000     0.0244418  
H143     H      0.759600000000     0.954490000000     0.524150000000     0.0520494  
H144     H      0.730850000000     0.974420000000     0.579770000000     0.0640153  
H145     H      0.858640000000     0.111170000000     0.524490000000     0.0718313  
H146     H      0.789790000000     0.113180000000     0.513990000000     0.118487   
H147     H      0.825760000000     0.943750000000     0.502780000000     0.0417839  
H148     H      0.365050000000     0.962500000000     0.529530000000     0.0322176  
H149     H      0.131370000000     0.946090000000     0.520050000000     0.0220697  
H150     H      0.326540000000     0.095360000000     0.523030000000     0.0612279  
H151     H      0.207400000000     0.948960000000     0.508190000000     0.0659877  
H152     H      0.282700000000     0.943330000000     0.543820000000     0.0531629  
H153     H      0.282700000000     0.066360000000     0.594170000000     0.117601   
H154     H      0.407660000000     0.113190000000     0.508650000000     0.0277328  
H155     H      0.011460000000     0.666730000000     0.417030000000     0.0337857  
H156     H      0.066870000000     0.922030000000     0.441150000000     0.0236564  
H157     H      0.993200000000     0.769250000000     0.515500000000     0.0572138  
H158     H      0.069480000000     0.847190000000     0.437160000000     0.0677091  
H159     H      0.997600000000     0.733070000000     0.390870000000     0.0592667  
H160     H      0.912780000000     0.763300000000     0.439200000000     0.119199   
H161     H      0.007830000000     0.704590000000     0.540530000000     0.0256739  
H162     H      0.065140000000     0.383030000000     0.514860000000     0.042646   
H163     H      0.110170000000     0.213050000000     0.618470000000     0.0221014  
H164     H      0.985110000000     0.296700000000     0.642000000000     0.0627135  
H165     H      0.109840000000     0.290000000000     0.623840000000     0.0704336  
H166     H      0.079010000000     0.319080000000     0.543830000000     0.0595328  
H167     H      0.956370000000     0.214210000000     0.588140000000     0.122573   
H168     H      0.973550000000     0.363180000000     0.613220000000     0.0348429  
H169     H      0.945440000000     0.021530000000     0.680150000000     0.034693   
H170     H      0.030460000000     0.946000000000     0.892520000000     0.0250417  
H171     H      0.054990000000     0.975850000000     0.758900000000     0.0594499  
H172     H      0.010900000000     0.932420000000     0.819370000000     0.0656752  
H173     H      0.938920000000     0.009290000000     0.754180000000     0.0598445  
H174     H      0.992480000000     0.058460000000     0.810130000000     0.123689   
H175     H      0.059800000000     0.987310000000     0.685230000000     0.0398416  
H176     H      0.116320000000     0.125520000000     0.179940000000     0.0459725  
H177     H      0.957500000000     0.011550000000     0.375020000000     0.036988   
H178     H      0.012710000000     0.981600000000     0.266510000000     0.0593652  
H179     H      0.969520000000     0.012280000000     0.302190000000     0.0723426  
H180     H      0.107050000000     0.137750000000     0.250890000000     0.0621894  
H181     H      0.119350000000     0.127270000000     0.321860000000     0.123645   
H182     H      0.021620000000     0.970990000000     0.195210000000     0.0393173  
H183     H      0.660860000000     0.730140000000     0.076080000000     0.0255908  
H184     H      0.922930000000     0.861070000000     0.979900000000     0.0205087  
H185     H      0.810850000000     0.730040000000     0.047670000000     0.0485687  
H186     H      0.851020000000     0.785180000000     0.998370000000     0.0614427  
H187     H      0.726570000000     0.802760000000     0.050210000000     0.052645   
H188     H      0.793550000000     0.869460000000     0.047330000000     0.121488   
H189     H      0.739480000000     0.654520000000     0.069880000000     0.029502   
H190     H      0.381000000000     0.422860000000     0.984010000000     0.0319664  
H191     H      0.230510000000     0.149690000000     0.053090000000     0.0322278  
H192     H      0.381890000000     0.283730000000     0.057960000000     0.0500939  
H193     H      0.309680000000     0.218090000000     0.042850000000     0.0679644  
H194     H      0.305270000000     0.357420000000     0.010010000000     0.0639435  
H195     H      0.255650000000     0.315390000000     0.064810000000     0.120882   
H196     H      0.455340000000     0.347410000000     0.028000000000     0.0301149  
H197     H      0.729170000000     0.064110000000     0.023070000000     0.0288147  
H198     H      0.982750000000     0.169380000000     0.111200000000     0.0323798  
H199     H      0.798650000000     0.099600000000     0.165630000000     0.058688   
H200     H      0.908320000000     0.175360000000     0.109920000000     0.0635963  
H201     H      0.814550000000     0.088730000000     0.037140000000     0.0629862  
H202     H      0.821800000000     0.018180000000     0.117250000000     0.127014   
H203     H      0.713420000000     0.075870000000     0.150720000000     0.0349228  
H204     H      0.452480000000     0.131510000000     0.975410000000     0.037077   
H205     H      0.183940000000     0.988920000000     0.039950000000     0.0643986  
H206     H      0.305570000000     0.969650000000     0.995050000000     0.0552906  
H207     H      0.260400000000     0.992140000000     0.034400000000     0.0690844  
H208     H      0.372780000000     0.124200000000     0.965840000000     0.0572776  
H209     H      0.293750000000     0.094570000000     0.932450000000     0.117664   
H210     H      0.385990000000     0.978870000000     0.005960000000     0.0377607  
H211     H      0.010090000000     0.674950000000     0.973350000000     0.0386906  
H212     H      0.933920000000     0.840230000000     0.075890000000     0.0258287  
H213     H      0.004430000000     0.735980000000     0.108250000000     0.0650847  
H214     H      0.922220000000     0.760810000000     0.057810000000     0.0626048  
H215     H      0.989490000000     0.739830000000     0.976030000000     0.054906   
H216     H      0.076230000000     0.828950000000     0.040270000000     0.118489   
H217     H      0.027400000000     0.674710000000     0.104740000000     0.0458756  
H218     H      0.106710000000     0.412980000000     0.083140000000     0.0322169  
H219     H      0.958170000000     0.132250000000     0.021990000000     0.0351057  
H220     H      0.948770000000     0.267920000000     0.044250000000     0.0553735  
H221     H      0.953170000000     0.201060000000     0.043530000000     0.0617544  
H222     H      0.106080000000     0.340880000000     0.061200000000     0.0680773  
H223     H      0.099860000000     0.298150000000     0.005300000000     0.128919   
H224     H      0.951010000000     0.339080000000     0.069410000000     0.0334813  
N1       N      0.558830000000     0.542110000000     0.891190000000    -0.252332   
N2       N      0.540720000000     0.553090000000     0.671670000000    -0.198556   
N3       N      0.513240000000     0.529400000000     0.171460000000    -0.254953   
N4       N      0.531930000000     0.536390000000     0.387710000000    -0.203398   
N5       N      0.551610000000     0.707500000000     0.480350000000    -0.256584   
N6       N      0.564580000000     0.938140000000     0.485940000000    -0.18293    
N7       N      0.497260000000     0.173050000000     0.613470000000    -0.251295   
N8       N      0.458280000000     0.368830000000     0.590700000000    -0.191931   
N9       N      0.566610000000     0.079430000000     0.913740000000    -0.250378   
N10      N      0.561120000000     0.060320000000     0.697990000000    -0.201611   
N11      N      0.558810000000     0.070300000000     0.202210000000    -0.262002   
N12      N      0.522850000000     0.064050000000     0.415830000000    -0.20297    
N13      N      0.564720000000     0.905600000000     0.018880000000    -0.258803   
N14      N      0.580840000000     0.701640000000     0.980270000000    -0.198062   
N15      N      0.510170000000     0.171070000000     0.109710000000    -0.227669   
N16      N      0.535970000000     0.405830000000     0.101920000000    -0.195968   
N17      N      0.880800000000     0.419720000000     0.475420000000    -0.254882   
N18      N      0.668920000000     0.200460000000     0.480280000000    -0.19843    
N19      N      0.172240000000     0.695620000000     0.565000000000    -0.262442   
N20      N      0.391600000000     0.917490000000     0.602630000000    -0.185518   
N21      N      0.886590000000     0.542550000000     0.585100000000    -0.261698   
N22      N      0.660210000000     0.528060000000     0.531060000000    -0.202392   
N23      N      0.384650000000     0.542750000000     0.579740000000    -0.256057   
N24      N      0.165030000000     0.548280000000     0.541720000000    -0.196573   
N25      N      0.048090000000     0.524270000000     0.899990000000    -0.252551   
N26      N      0.038210000000     0.532740000000     0.683250000000    -0.213224   
N27      N      0.018480000000     0.485730000000     0.181980000000    -0.24995    
N28      N      0.031070000000     0.502960000000     0.396530000000    -0.193203   
N29      N      0.930800000000     0.393930000000     0.977900000000    -0.253279   
N30      N      0.709920000000     0.179960000000     0.022650000000    -0.197463   
N31      N      0.198360000000     0.688420000000     0.079020000000    -0.249617   
N32      N      0.420690000000     0.912650000000     0.111080000000    -0.200692   
N33      N      0.930880000000     0.572670000000     0.067410000000    -0.25295    
N34      N      0.724130000000     0.588330000000     0.012170000000    -0.184421   
N35      N      0.210520000000     0.594300000000     0.013680000000    -0.256259   
N36      N      0.417350000000     0.576750000000     0.029300000000    -0.209387   
N37      N      0.668700000000     0.683980000000     0.586560000000    -0.25709    
N38      N      0.900140000000     0.893500000000     0.581880000000    -0.200217   
N39      N      0.182340000000     0.177020000000     0.510070000000    -0.256633   
N40      N      0.374770000000     0.416820000000     0.477090000000    -0.202182   
N41      N      0.690010000000     0.054600000000     0.570250000000    -0.253763   
N42      N      0.878340000000     0.020440000000     0.501090000000    -0.199863   
N43      N      0.163670000000     0.006090000000     0.561970000000    -0.261342   
N44      N      0.392880000000     0.039580000000     0.520070000000    -0.202455   
N45      N      0.988830000000     0.885880000000     0.444350000000    -0.238919   
N46      N      0.011770000000     0.681590000000     0.480590000000    -0.206709   
N47      N      0.035240000000     0.172330000000     0.597190000000    -0.264582   
N48      N      0.017750000000     0.377150000000     0.561670000000    -0.191452   
N49      N      0.024090000000     0.010340000000     0.893090000000    -0.253278   
N50      N      0.004370000000     0.007250000000     0.677550000000    -0.202718   
N51      N      0.031630000000     0.066450000000     0.390200000000    -0.253859   
N52      N      0.067550000000     0.047680000000     0.181880000000    -0.199587   
N53      N      0.899590000000     0.907560000000     0.003510000000    -0.250294   
N54      N      0.694010000000     0.685880000000     0.071610000000    -0.207354   
N55      N      0.196010000000     0.191980000000     0.060780000000    -0.251984   
N56      N      0.423880000000     0.390390000000     0.004860000000    -0.207211   
N57      N      0.943950000000     0.090990000000     0.110750000000    -0.241372   
N58      N      0.714660000000     0.066800000000     0.085990000000    -0.204131   
N59      N      0.193950000000     0.039760000000     0.990090000000    -0.249938   
N60      N      0.425050000000     0.056170000000     0.993050000000    -0.197517   
N61      N      0.011370000000     0.879590000000     0.068360000000    -0.261192   
N62      N      0.021990000000     0.671710000000     0.038610000000    -0.203253   
N63      N      0.032380000000     0.174580000000     0.004360000000    -0.250977   
N64      N      0.029170000000     0.382310000000     0.075730000000    -0.19895    
O1       O      0.011390000000     0.096130000000     0.021600000000    -0.423849   
O2       O      0.982640000000     0.943670000000     0.003270000000    -0.439638   
O3       O      0.049320000000     0.060570000000     0.948230000000    -0.427233   
O4       O      0.974280000000     0.044850000000     0.088930000000    -0.447105   
O5       O      0.052750000000     0.993670000000     0.954920000000    -0.44846    
O6       O      0.026170000000     0.122350000000     0.099120000000    -0.386481   
O7       O      0.951390000000     0.984760000000     0.025500000000    -0.38652    
O8       O      0.077520000000     0.139110000000     0.991500000000    -0.39727    
O9       O      0.079180000000     0.080040000000     0.116550000000    -0.428447   
O10      O      0.121910000000     0.009360000000     0.021610000000    -0.434649   
O11      O      0.147610000000     0.122260000000     0.027430000000    -0.479175   
O12      O      0.981430000000     0.930460000000     0.075800000000    -0.41619    
O13      O      0.056300000000     0.962510000000     0.068890000000    -0.421546   
O14      O      0.111050000000     0.149740000000     0.062700000000    -0.348265   
O15      O      0.023310000000     0.004620000000     0.125620000000    -0.43677    
O16      O      0.135980000000     0.062010000000     0.972810000000    -0.404008   
O17      O      0.055500000000     0.041110000000     0.035860000000    -0.551446   
O18      O      0.069530000000     0.064960000000     0.450900000000    -0.421996   
O19      O      0.012780000000     0.111140000000     0.553150000000    -0.450112   
O20      O      0.915970000000     0.974960000000     0.495290000000    -0.362486   
O21      O      0.122110000000     0.127680000000     0.552410000000    -0.497398   
O22      O      0.959580000000     0.050530000000     0.503250000000    -0.442598   
O23      O      0.137410000000     0.092500000000     0.504910000000    -0.392143   
O24      O      0.062290000000     0.117450000000     0.603920000000    -0.447468   
O25      O      0.991660000000     0.019360000000     0.446130000000    -0.417945   
O26      O      0.091150000000     0.991750000000     0.532380000000    -0.47397    
O27      O      0.934520000000     0.975200000000     0.567290000000    -0.452976   
O28      O      0.950150000000     0.926120000000     0.463700000000    -0.358066   
O29      O      0.049160000000     0.023460000000     0.621120000000    -0.466174   
O30      O      0.989870000000     0.039220000000     0.616940000000    -0.433587   
O31      O      0.029980000000     0.964030000000     0.470040000000    -0.490819   
O32      O      0.125080000000     0.047330000000     0.577770000000    -0.433368   
O33      O      0.966820000000     0.936250000000     0.542430000000    -0.428071   
O34      O      0.031450000000     0.037900000000     0.534670000000    -0.542525   
O35      O      0.012020000000     0.438010000000     0.998710000000    -0.396216   
O36      O      0.063330000000     0.637290000000     0.070000000000    -0.45444    
O37      O      0.959670000000     0.525720000000     0.046580000000    -0.475909   
O38      O      0.041180000000     0.555330000000     0.959190000000    -0.409238   
O39      O      0.992240000000     0.564060000000     0.103420000000    -0.378154   
O40      O      0.079060000000     0.514140000000     0.963040000000    -0.430757   
O41      O      0.035470000000     0.616390000000     0.006930000000    -0.423181   
O42      O      0.968660000000     0.472020000000     0.999640000000    -0.440102   
O43      O      0.136230000000     0.541990000000     0.037780000000    -0.455547   
O44      O      0.062020000000     0.531210000000     0.127710000000    -0.439089   
O45      O      0.992240000000     0.428190000000     0.068670000000    -0.433948   
O46      O      0.131560000000     0.647750000000     0.035200000000    -0.449156   
O47      O      0.132780000000     0.611110000000     0.093320000000    -0.38401    
O48      O      0.070430000000     0.465740000000     0.074000000000    -0.429675   
O49      O      0.139920000000     0.591520000000     0.987730000000    -0.397778   
O50      O      0.983800000000     0.485440000000     0.117120000000    -0.389355   
O51      O      0.050340000000     0.539340000000     0.043370000000    -0.536054   
O52      O      0.964220000000     0.458550000000     0.485040000000    -0.39933    
O53      O      0.036710000000     0.648740000000     0.533590000000    -0.477802   
O54      O      0.936140000000     0.509350000000     0.594920000000    -0.413202   
O55      O      0.024990000000     0.544300000000     0.448960000000    -0.450958   
O56      O      0.967190000000     0.583950000000     0.571850000000    -0.502435   
O57      O      0.056030000000     0.500120000000     0.464150000000    -0.381854   
O58      O      0.025100000000     0.617560000000     0.473340000000    -0.440786   
O59      O      0.922030000000     0.457430000000     0.534140000000    -0.45709    
O60      O      0.083400000000     0.512710000000     0.547630000000    -0.449567   
O61      O      0.029080000000     0.571400000000     0.625590000000    -0.495657   
O62      O      0.992530000000     0.433430000000     0.565220000000    -0.475735   
O63      O      0.112570000000     0.647030000000     0.517880000000    -0.430386   
O64      O      0.099790000000     0.628920000000     0.582260000000    -0.490189   
O65      O      0.026720000000     0.432110000000     0.510330000000    -0.396732   
O66      O      0.116350000000     0.570720000000     0.500890000000    -0.403687   
O67      O      0.015190000000     0.497810000000     0.620200000000    -0.466093   
O68      O      0.021410000000     0.546090000000     0.535760000000    -0.543424   
O69      O      0.472540000000     0.030960000000     0.029440000000    -0.418659   
O70      O      0.547640000000     0.967700000000     0.010950000000    -0.415112   
O71      O      0.584130000000     0.117720000000     0.976270000000    -0.363313   
O72      O      0.503850000000     0.954980000000     0.107460000000    -0.463998   
O73      O      0.546880000000     0.039690000000     0.975790000000    -0.444759   
O74      O      0.464990000000     0.996120000000     0.100450000000    -0.408238   
O75      O      0.575430000000     0.957440000000     0.070000000000    -0.47646    
O76      O      0.506330000000     0.105060000000     0.010820000000    -0.436252   
O77      O      0.541390000000     0.078680000000     0.133920000000    -0.389112   
O78      O      0.645470000000     0.103620000000     0.008110000000    -0.43622    
O79      O      0.555160000000     0.141220000000     0.083800000000    -0.395964   
O80      O      0.638850000000     0.044500000000     0.107020000000    -0.46493    
O81      O      0.645460000000     0.032060000000     0.043170000000    -0.444143   
O82      O      0.475550000000     0.089570000000     0.090500000000    -0.374981   
O83      O      0.569820000000     0.031550000000     0.150960000000    -0.513251   
O84      O      0.636150000000     0.147880000000     0.052180000000    -0.405849   
O85      O      0.560380000000     0.046620000000     0.059580000000    -0.550877   
O86      O      0.453400000000     0.022100000000     0.535800000000    -0.442757   
O87      O      0.602980000000     0.021890000000     0.494530000000    -0.402072   
O88      O      0.539450000000     0.108620000000     0.473470000000    -0.466996   
O89      O      0.472670000000     0.965570000000     0.589380000000    -0.453714   
O90      O      0.527330000000     0.034870000000     0.481050000000    -0.422341   
O91      O      0.434770000000     0.000680000000     0.613420000000    -0.415301   
O92      O      0.534530000000     0.972730000000     0.527130000000    -0.413552   
O93      O      0.473940000000     0.097350000000     0.522350000000    -0.455593   
O94      O      0.523870000000     0.064440000000     0.637310000000    -0.452588   
O95      O      0.622140000000     0.117040000000     0.490840000000    -0.384198   
O96      O      0.547630000000     0.156380000000     0.579730000000    -0.399403   
O97      O      0.609670000000     0.015890000000     0.584330000000    -0.442221   
O98      O      0.639310000000     0.085310000000     0.556240000000    -0.397243   
O99      O      0.477260000000     0.095070000000     0.596320000000    -0.402179   
O100     O      0.556610000000     0.019640000000     0.639700000000    -0.414204   
O101     O      0.611650000000     0.166470000000     0.528060000000    -0.43276    
O102     O      0.550070000000     0.074420000000     0.558400000000    -0.617985   
O103     O      0.506990000000     0.432210000000     0.004440000000    -0.404085   
O104     O      0.541230000000     0.631470000000     0.016750000000    -0.474508   
O105     O      0.447540000000     0.525640000000     0.021980000000    -0.447821   
O106     O      0.582010000000     0.578600000000     0.953890000000    -0.407816   
O107     O      0.478590000000     0.577210000000     0.070010000000    -0.480945   
O108     O      0.561970000000     0.503130000000     0.951970000000    -0.43821    
O109     O      0.613720000000     0.652140000000     0.997670000000    -0.37455    
O110     O      0.470980000000     0.471420000000     0.992800000000    -0.440226   
O111     O      0.640730000000     0.540670000000     0.009940000000    -0.470234   
O112     O      0.550440000000     0.572530000000     0.114420000000    -0.491977   
O113     O      0.500690000000     0.449180000000     0.074140000000    -0.418008   
O114     O      0.645630000000     0.603480000000     0.061260000000    -0.422684   
O115     O      0.612130000000     0.644340000000     0.072840000000    -0.493338   
O116     O      0.578260000000     0.477900000000     0.065710000000    -0.421826   
O117     O      0.672870000000     0.615850000000     0.984740000000    -0.379126   
O118     O      0.478580000000     0.507490000000     0.105310000000    -0.390063   
O119     O      0.546580000000     0.545900000000     0.032320000000    -0.543229   
O120     O      0.457710000000     0.459750000000     0.474840000000    -0.454721   
O121     O      0.512020000000     0.628290000000     0.503210000000    -0.461529   
O122     O      0.437570000000     0.512620000000     0.593900000000    -0.359487   
O123     O      0.557750000000     0.582650000000     0.445490000000    -0.455047   
O124     O      0.452150000000     0.565620000000     0.545540000000    -0.48079    
O125     O      0.544390000000     0.508290000000     0.450780000000    -0.435694   
O126     O      0.586980000000     0.659370000000     0.491260000000    -0.406715   
O127     O      0.425120000000     0.465560000000     0.528500000000    -0.415692   
O128     O      0.577380000000     0.494880000000     0.531400000000    -0.454164   
O129     O      0.520750000000     0.581430000000     0.611500000000    -0.447824   
O130     O      0.448260000000     0.435340000000     0.600690000000    -0.367977   
O131     O      0.626940000000     0.617510000000     0.546660000000    -0.444458   
O132     O      0.587080000000     0.650760000000     0.567060000000    -0.450821   
O133     O      0.487250000000     0.436150000000     0.548100000000    -0.516366   
O134     O      0.617990000000     0.557890000000     0.492520000000    -0.452319   
O135     O      0.530620000000     0.518450000000     0.609150000000    -0.434418   
O136     O      0.524780000000     0.548860000000     0.527610000000    -0.533069   


