data_structure

_audit_creation_method RASPA-1.0
_audit_creation_date 2023-5-19
_audit_author_name 'Poobodin Mano'

_cell_length_a    30.0068
_cell_length_b    29.8959
_cell_length_c    29.7713
_cell_angle_alpha 90
_cell_angle_beta  90
_cell_angle_gamma 90
_cell_volume      26707.2

_symmetry_cell_setting          triclinic
_symmetry_space_group_name_Hall 'P 1'
_symmetry_space_group_name_H-M  'P 1'
_symmetry_Int_Tables_number     1

_symmetry_equiv_pos_as_xyz 'x,y,z'

loop_
_atom_site_label
_atom_site_type_symbol
_atom_site_fract_x
_atom_site_fract_y
_atom_site_fract_z
_atom_site_charge
C1       C      0.444080000000     0.447170000000     0.086110000000     0.390175   
C2       C      0.085850000000     0.094130000000     0.084440000000     0.38791    
C3       C      0.099600000000     0.439310000000     0.068110000000     0.38798    
C4       C      0.441080000000     0.091380000000     0.086750000000     0.386321   
C5       C      0.428770000000     0.102250000000     0.465830000000     0.398166   
C6       C      0.094010000000     0.442000000000     0.456790000000     0.397709   
C7       C      0.430760000000     0.434980000000     0.467420000000     0.396648   
C8       C      0.093380000000     0.106100000000     0.462470000000     0.395961   
C9       C      0.347690000000     0.350410000000     0.213450000000     0.392829   
C10      C      0.190200000000     0.191170000000     0.202180000000     0.391989   
C11      C      0.344170000000     0.194000000000     0.206300000000     0.390699   
C12      C      0.195870000000     0.344390000000     0.196100000000     0.388444   
C13      C      0.187740000000     0.344210000000     0.329790000000     0.393477   
C14      C      0.335960000000     0.197270000000     0.336990000000     0.391402   
C15      C      0.335810000000     0.341720000000     0.338810000000     0.389387   
C16      C      0.189440000000     0.198350000000     0.332230000000     0.390109   
C17      C      0.091220000000     0.156860000000     0.138970000000    -0.0119665  
C18      C      0.141980000000     0.091160000000     0.145400000000    -0.0262442  
C19      C      0.130900000000     0.188420000000     0.144920000000    -0.0145146  
C20      C      0.182220000000     0.122170000000     0.152410000000     0.0316125  
C21      C      0.190830000000     0.144050000000     0.394750000000    -0.0118139  
C22      C      0.135830000000     0.206160000000     0.394630000000    -0.0257542  
C23      C      0.155580000000     0.110910000000     0.409960000000    -0.0130392  
C24      C      0.100230000000     0.175830000000     0.416470000000     0.0331995  
C25      C      0.117050000000     0.365530000000     0.101190000000    -0.0123022  
C26      C      0.175200000000     0.424410000000     0.097210000000    -0.0257963  
C27      C      0.129890000000     0.353740000000     0.149080000000    -0.0133334  
C28      C      0.195490000000     0.408540000000     0.142310000000     0.0310846  
C29      C      0.379540000000     0.094580000000     0.142540000000    -0.0118432  
C30      C      0.444310000000     0.146240000000     0.148940000000    -0.0260075  
C31      C      0.347570000000     0.133700000000     0.150090000000    -0.0152042  
C32      C      0.413190000000     0.186150000000     0.157360000000     0.0317281  
C33      C      0.331810000000     0.396380000000     0.401060000000    -0.0118208  
C34      C      0.384950000000     0.333030000000     0.404680000000    -0.025847   
C35      C      0.367020000000     0.429300000000     0.416980000000    -0.012362   
C36      C      0.420520000000     0.362630000000     0.427420000000     0.0340241  
C37      C      0.390020000000     0.200880000000     0.399450000000    -0.0114801  
C38      C      0.327590000000     0.146580000000     0.401800000000    -0.0254503  
C39      C      0.423120000000     0.165760000000     0.414960000000    -0.0126989  
C40      C      0.357640000000     0.110800000000     0.423490000000     0.0338009  
C41      C      0.126140000000     0.345110000000     0.385170000000    -0.0109417  
C42      C      0.193010000000     0.392950000000     0.396140000000    -0.0257043  
C43      C      0.095760000000     0.383470000000     0.399440000000    -0.0141454  
C44      C      0.164500000000     0.432070000000     0.412880000000     0.0339595  
C45      C      0.380040000000     0.442160000000     0.136990000000    -0.0124096  
C46      C      0.446140000000     0.389370000000     0.145700000000    -0.0264876  
C47      C      0.368250000000     0.424500000000     0.183590000000    -0.0121216  
C48      C      0.411950000000     0.354630000000     0.161790000000     0.0350132  
C49      C      0.444080000000     0.447170000000     0.586120000000     0.3902     
C50      C      0.085850000000     0.094130000000     0.584440000000     0.387993   
C51      C      0.099600000000     0.439310000000     0.568110000000     0.388062   
C52      C      0.441080000000     0.091380000000     0.586750000000     0.386367   
C53      C      0.428770000000     0.102250000000     0.965830000000     0.398053   
C54      C      0.094010000000     0.442000000000     0.956790000000     0.397629   
C55      C      0.430760000000     0.434980000000     0.967420000000     0.396566   
C56      C      0.093380000000     0.106100000000     0.962470000000     0.395876   
C57      C      0.347690000000     0.350410000000     0.713450000000     0.392838   
C58      C      0.190200000000     0.191170000000     0.702180000000     0.391994   
C59      C      0.344170000000     0.194000000000     0.706300000000     0.390704   
C60      C      0.195870000000     0.344390000000     0.696100000000     0.388451   
C61      C      0.187740000000     0.344210000000     0.829790000000     0.393542   
C62      C      0.335960000000     0.197270000000     0.836990000000     0.391402   
C63      C      0.335810000000     0.341720000000     0.838800000000     0.389371   
C64      C      0.189440000000     0.198350000000     0.832220000000     0.390162   
C65      C      0.091220000000     0.156860000000     0.638970000000    -0.0119527  
C66      C      0.141980000000     0.091160000000     0.645400000000    -0.02623    
C67      C      0.130900000000     0.188420000000     0.644920000000    -0.0145248  
C68      C      0.182220000000     0.122170000000     0.652410000000     0.031607   
C69      C      0.190830000000     0.144050000000     0.894740000000    -0.0117931  
C70      C      0.135830000000     0.206160000000     0.894620000000    -0.0257258  
C71      C      0.155580000000     0.110910000000     0.909960000000    -0.0130495  
C72      C      0.100230000000     0.175830000000     0.916470000000     0.0331572  
C73      C      0.117050000000     0.365530000000     0.601190000000    -0.0123163  
C74      C      0.175200000000     0.424410000000     0.597210000000    -0.025838   
C75      C      0.129890000000     0.353740000000     0.649080000000    -0.0133217  
C76      C      0.195490000000     0.408540000000     0.642310000000     0.0310935  
C77      C      0.379540000000     0.094580000000     0.642540000000    -0.0118403  
C78      C      0.444310000000     0.146240000000     0.648940000000    -0.0259985  
C79      C      0.347570000000     0.133700000000     0.650090000000    -0.0151853  
C80      C      0.413190000000     0.186150000000     0.657360000000     0.0317256  
C81      C      0.331810000000     0.396380000000     0.901060000000    -0.0118407  
C82      C      0.384950000000     0.333030000000     0.904680000000    -0.0258423  
C83      C      0.367020000000     0.429300000000     0.916980000000    -0.012333   
C84      C      0.420520000000     0.362630000000     0.927410000000     0.0339807  
C85      C      0.390020000000     0.200880000000     0.899450000000    -0.0114602  
C86      C      0.327590000000     0.146580000000     0.901800000000    -0.0254428  
C87      C      0.423120000000     0.165760000000     0.914960000000    -0.0127049  
C88      C      0.357640000000     0.110800000000     0.923490000000     0.0337591  
C89      C      0.126140000000     0.345110000000     0.885170000000    -0.0109516  
C90      C      0.193010000000     0.392950000000     0.896140000000    -0.0257065  
C91      C      0.095760000000     0.383470000000     0.899430000000    -0.0141667  
C92      C      0.164500000000     0.432070000000     0.912880000000     0.0339225  
C93      C      0.380040000000     0.442160000000     0.636990000000    -0.0124101  
C94      C      0.446140000000     0.389370000000     0.645700000000    -0.0264691  
C95      C      0.368250000000     0.424500000000     0.683590000000    -0.0121184  
C96      C      0.411950000000     0.354630000000     0.661790000000     0.0349911  
C97      C      0.444080000000     0.947170000000     0.086110000000     0.390171   
C98      C      0.085850000000     0.594120000000     0.084440000000     0.387924   
C99      C      0.099600000000     0.939310000000     0.068110000000     0.387846   
C100     C      0.441080000000     0.591380000000     0.086750000000     0.386312   
C101     C      0.428770000000     0.602250000000     0.465830000000     0.398151   
C102     C      0.094010000000     0.942000000000     0.456790000000     0.397924   
C103     C      0.430760000000     0.934980000000     0.467420000000     0.396685   
C104     C      0.093380000000     0.606110000000     0.462470000000     0.395906   
C105     C      0.347690000000     0.850410000000     0.213450000000     0.392829   
C106     C      0.190200000000     0.691170000000     0.202180000000     0.391988   
C107     C      0.344170000000     0.693990000000     0.206300000000     0.390662   
C108     C      0.195870000000     0.844390000000     0.196100000000     0.388446   
C109     C      0.187740000000     0.844210000000     0.329790000000     0.39348    
C110     C      0.335960000000     0.697270000000     0.336990000000     0.391403   
C111     C      0.335810000000     0.841720000000     0.338810000000     0.389386   
C112     C      0.189440000000     0.698350000000     0.332230000000     0.39011    
C113     C      0.091220000000     0.656870000000     0.138970000000    -0.0120283  
C114     C      0.141980000000     0.591160000000     0.145400000000    -0.0262491  
C115     C      0.130900000000     0.688420000000     0.144920000000    -0.0144876  
C116     C      0.182220000000     0.622160000000     0.152410000000     0.0315797  
C117     C      0.190830000000     0.644050000000     0.394750000000    -0.0118155  
C118     C      0.135830000000     0.706160000000     0.394630000000    -0.0257527  
C119     C      0.155580000000     0.610910000000     0.409960000000    -0.0130317  
C120     C      0.100230000000     0.675830000000     0.416470000000     0.033197   
C121     C      0.117050000000     0.865530000000     0.101190000000    -0.0122418  
C122     C      0.175200000000     0.924410000000     0.097210000000    -0.0258455  
C123     C      0.129890000000     0.853740000000     0.149080000000    -0.0133638  
C124     C      0.195490000000     0.908530000000     0.142310000000     0.0311372  
C125     C      0.379540000000     0.594580000000     0.142540000000    -0.0118274  
C126     C      0.444310000000     0.646240000000     0.148940000000    -0.0260108  
C127     C      0.347570000000     0.633690000000     0.150090000000    -0.0152453  
C128     C      0.413190000000     0.686150000000     0.157360000000     0.0317352  
C129     C      0.331810000000     0.896390000000     0.401060000000    -0.0118837  
C130     C      0.384950000000     0.833030000000     0.404680000000    -0.0258389  
C131     C      0.367020000000     0.929300000000     0.416980000000    -0.012309   
C132     C      0.420520000000     0.862630000000     0.427420000000     0.033996   
C133     C      0.390020000000     0.700880000000     0.399450000000    -0.0114791  
C134     C      0.327590000000     0.646580000000     0.401800000000    -0.0254482  
C135     C      0.423120000000     0.665760000000     0.414960000000    -0.0127015  
C136     C      0.357640000000     0.610800000000     0.423490000000     0.0337966  
C137     C      0.126140000000     0.845110000000     0.385170000000    -0.0109422  
C138     C      0.193010000000     0.892950000000     0.396140000000    -0.0256769  
C139     C      0.095760000000     0.883470000000     0.399440000000    -0.0141408  
C140     C      0.164500000000     0.932070000000     0.412880000000     0.0339297  
C141     C      0.380040000000     0.942160000000     0.136990000000    -0.0124124  
C142     C      0.446140000000     0.889370000000     0.145700000000    -0.0264892  
C143     C      0.368250000000     0.924500000000     0.183590000000    -0.0121221  
C144     C      0.411950000000     0.854630000000     0.161790000000     0.0350138  
C145     C      0.444080000000     0.947170000000     0.586120000000     0.390196   
C146     C      0.085850000000     0.594120000000     0.584440000000     0.388006   
C147     C      0.099600000000     0.939310000000     0.568110000000     0.387928   
C148     C      0.441080000000     0.591380000000     0.586750000000     0.386358   
C149     C      0.428770000000     0.602250000000     0.965830000000     0.398038   
C150     C      0.094010000000     0.942000000000     0.956790000000     0.397844   
C151     C      0.430760000000     0.934980000000     0.967420000000     0.396603   
C152     C      0.093380000000     0.606110000000     0.962470000000     0.395821   
C153     C      0.347690000000     0.850410000000     0.713450000000     0.392838   
C154     C      0.190200000000     0.691170000000     0.702180000000     0.391993   
C155     C      0.344170000000     0.693990000000     0.706300000000     0.390667   
C156     C      0.195870000000     0.844390000000     0.696100000000     0.388452   
C157     C      0.187740000000     0.844210000000     0.829790000000     0.393545   
C158     C      0.335960000000     0.697270000000     0.836990000000     0.391403   
C159     C      0.335810000000     0.841720000000     0.838800000000     0.38937    
C160     C      0.189440000000     0.698350000000     0.832220000000     0.390163   
C161     C      0.091220000000     0.656870000000     0.638970000000    -0.0120146  
C162     C      0.141980000000     0.591160000000     0.645400000000    -0.0262349  
C163     C      0.130900000000     0.688420000000     0.644920000000    -0.0144978  
C164     C      0.182220000000     0.622160000000     0.652410000000     0.0315742  
C165     C      0.190830000000     0.644050000000     0.894740000000    -0.0117947  
C166     C      0.135830000000     0.706160000000     0.894620000000    -0.0257242  
C167     C      0.155580000000     0.610910000000     0.909960000000    -0.013042   
C168     C      0.100230000000     0.675830000000     0.916470000000     0.0331547  
C169     C      0.117050000000     0.865530000000     0.601190000000    -0.0122559  
C170     C      0.175200000000     0.924410000000     0.597210000000    -0.0258872  
C171     C      0.129890000000     0.853740000000     0.649080000000    -0.0133521  
C172     C      0.195490000000     0.908530000000     0.642310000000     0.0311461  
C173     C      0.379540000000     0.594580000000     0.642540000000    -0.0118244  
C174     C      0.444310000000     0.646240000000     0.648940000000    -0.0260018  
C175     C      0.347570000000     0.633690000000     0.650090000000    -0.0152264  
C176     C      0.413190000000     0.686150000000     0.657360000000     0.0317327  
C177     C      0.331810000000     0.896390000000     0.901060000000    -0.0119037  
C178     C      0.384950000000     0.833030000000     0.904680000000    -0.0258342  
C179     C      0.367020000000     0.929300000000     0.916980000000    -0.0122799  
C180     C      0.420520000000     0.862630000000     0.927410000000     0.0339526  
C181     C      0.390020000000     0.700880000000     0.899450000000    -0.0114592  
C182     C      0.327590000000     0.646580000000     0.901800000000    -0.0254407  
C183     C      0.423120000000     0.665760000000     0.914960000000    -0.0127075  
C184     C      0.357640000000     0.610800000000     0.923490000000     0.0337548  
C185     C      0.126140000000     0.845110000000     0.885170000000    -0.010952   
C186     C      0.193010000000     0.892950000000     0.896140000000    -0.0256791  
C187     C      0.095760000000     0.883470000000     0.899430000000    -0.0141622  
C188     C      0.164500000000     0.932070000000     0.912880000000     0.0338927  
C189     C      0.380040000000     0.942160000000     0.636990000000    -0.012413   
C190     C      0.446140000000     0.889370000000     0.645700000000    -0.0264707  
C191     C      0.368250000000     0.924500000000     0.683590000000    -0.012119   
C192     C      0.411950000000     0.854630000000     0.661790000000     0.0349917  
C193     C      0.944080000000     0.447170000000     0.086110000000     0.390167   
C194     C      0.585850000000     0.094130000000     0.084440000000     0.387917   
C195     C      0.599600000000     0.439310000000     0.068110000000     0.387986   
C196     C      0.941080000000     0.091380000000     0.086750000000     0.386313   
C197     C      0.928770000000     0.102250000000     0.465830000000     0.398157   
C198     C      0.594010000000     0.442000000000     0.456790000000     0.397578   
C199     C      0.930760000000     0.434980000000     0.467420000000     0.39664    
C200     C      0.593380000000     0.106100000000     0.462470000000     0.395965   
C201     C      0.847690000000     0.350410000000     0.213450000000     0.39283    
C202     C      0.690200000000     0.191170000000     0.202180000000     0.391987   
C203     C      0.844160000000     0.194000000000     0.206300000000     0.390733   
C204     C      0.695870000000     0.344390000000     0.196100000000     0.388444   
C205     C      0.687740000000     0.344210000000     0.329790000000     0.393337   
C206     C      0.835960000000     0.197270000000     0.336990000000     0.391405   
C207     C      0.835810000000     0.341720000000     0.338810000000     0.389386   
C208     C      0.689440000000     0.198350000000     0.332230000000     0.39011    
C209     C      0.591220000000     0.156860000000     0.138970000000    -0.0119633  
C210     C      0.641980000000     0.091160000000     0.145400000000    -0.0262452  
C211     C      0.630900000000     0.188420000000     0.144920000000    -0.0145298  
C212     C      0.682220000000     0.122170000000     0.152410000000     0.0316123  
C213     C      0.690830000000     0.144050000000     0.394750000000    -0.0118135  
C214     C      0.635830000000     0.206160000000     0.394630000000    -0.025764   
C215     C      0.655580000000     0.110910000000     0.409960000000    -0.0130399  
C216     C      0.600230000000     0.175830000000     0.416470000000     0.0331975  
C217     C      0.617050000000     0.365530000000     0.101190000000    -0.012302   
C218     C      0.675200000000     0.424410000000     0.097210000000    -0.025781   
C219     C      0.629890000000     0.353740000000     0.149080000000    -0.0133349  
C220     C      0.695490000000     0.408540000000     0.142310000000     0.0310798  
C221     C      0.879540000000     0.094580000000     0.142540000000    -0.0118408  
C222     C      0.944310000000     0.146240000000     0.148940000000    -0.0260138  
C223     C      0.847570000000     0.133700000000     0.150090000000    -0.0152143  
C224     C      0.913190000000     0.186150000000     0.157360000000     0.0317277  
C225     C      0.831810000000     0.396380000000     0.401060000000    -0.0118201  
C226     C      0.884950000000     0.333030000000     0.404680000000    -0.0258446  
C227     C      0.867020000000     0.429300000000     0.416980000000    -0.012363   
C228     C      0.920520000000     0.362630000000     0.427420000000     0.0340192  
C229     C      0.890020000000     0.200880000000     0.399450000000    -0.0114741  
C230     C      0.827600000000     0.146580000000     0.401800000000    -0.0253783  
C231     C      0.923120000000     0.165760000000     0.414960000000    -0.0127081  
C232     C      0.857640000000     0.110800000000     0.423490000000     0.0337782  
C233     C      0.626140000000     0.345110000000     0.385170000000    -0.0109414  
C234     C      0.693010000000     0.392950000000     0.396140000000    -0.0257117  
C235     C      0.595760000000     0.383470000000     0.399440000000    -0.0141557  
C236     C      0.664500000000     0.432070000000     0.412880000000     0.0339601  
C237     C      0.880040000000     0.442160000000     0.136990000000    -0.0124081  
C238     C      0.946140000000     0.389370000000     0.145700000000    -0.0264946  
C239     C      0.868250000000     0.424500000000     0.183590000000    -0.0121232  
C240     C      0.911950000000     0.354630000000     0.161790000000     0.0350173  
C241     C      0.944080000000     0.447170000000     0.586120000000     0.390192   
C242     C      0.585850000000     0.094130000000     0.584440000000     0.387999   
C243     C      0.599600000000     0.439310000000     0.568110000000     0.388068   
C244     C      0.941080000000     0.091380000000     0.586750000000     0.386359   
C245     C      0.928770000000     0.102250000000     0.965830000000     0.398044   
C246     C      0.594010000000     0.442000000000     0.956790000000     0.397499   
C247     C      0.930760000000     0.434980000000     0.967420000000     0.396558   
C248     C      0.593380000000     0.106100000000     0.962470000000     0.39588    
C249     C      0.847690000000     0.350410000000     0.713450000000     0.392839   
C250     C      0.690200000000     0.191170000000     0.702180000000     0.391992   
C251     C      0.844160000000     0.194000000000     0.706300000000     0.390738   
C252     C      0.695870000000     0.344390000000     0.696100000000     0.38845    
C253     C      0.687740000000     0.344210000000     0.829790000000     0.393401   
C254     C      0.835960000000     0.197270000000     0.836990000000     0.391405   
C255     C      0.835810000000     0.341720000000     0.838800000000     0.38937    
C256     C      0.689440000000     0.198350000000     0.832220000000     0.390164   
C257     C      0.591220000000     0.156860000000     0.638970000000    -0.0119496  
C258     C      0.641980000000     0.091160000000     0.645400000000    -0.026231   
C259     C      0.630900000000     0.188420000000     0.644920000000    -0.01454    
C260     C      0.682220000000     0.122170000000     0.652410000000     0.0316069  
C261     C      0.690830000000     0.144050000000     0.894740000000    -0.0117927  
C262     C      0.635830000000     0.206160000000     0.894620000000    -0.0257356  
C263     C      0.655580000000     0.110910000000     0.909960000000    -0.0130501  
C264     C      0.600230000000     0.175830000000     0.916470000000     0.0331553  
C265     C      0.617050000000     0.365530000000     0.601190000000    -0.0123161  
C266     C      0.675200000000     0.424410000000     0.597210000000    -0.0258227  
C267     C      0.629890000000     0.353740000000     0.649080000000    -0.0133231  
C268     C      0.695490000000     0.408540000000     0.642310000000     0.0310887  
C269     C      0.879540000000     0.094580000000     0.642540000000    -0.0118379  
C270     C      0.944310000000     0.146240000000     0.648940000000    -0.0260048  
C271     C      0.847570000000     0.133700000000     0.650090000000    -0.0151955  
C272     C      0.913190000000     0.186150000000     0.657360000000     0.0317253  
C273     C      0.831810000000     0.396380000000     0.901060000000    -0.01184    
C274     C      0.884950000000     0.333030000000     0.904680000000    -0.0258399  
C275     C      0.867020000000     0.429300000000     0.916980000000    -0.012334   
C276     C      0.920520000000     0.362630000000     0.927410000000     0.0339758  
C277     C      0.890020000000     0.200880000000     0.899450000000    -0.0114542  
C278     C      0.827600000000     0.146580000000     0.901800000000    -0.0253707  
C279     C      0.923120000000     0.165760000000     0.914960000000    -0.0127141  
C280     C      0.857640000000     0.110800000000     0.923490000000     0.0337364  
C281     C      0.626140000000     0.345110000000     0.885170000000    -0.0109512  
C282     C      0.693010000000     0.392950000000     0.896140000000    -0.025714   
C283     C      0.595760000000     0.383470000000     0.899430000000    -0.0141771  
C284     C      0.664500000000     0.432070000000     0.912880000000     0.0339232  
C285     C      0.880040000000     0.442160000000     0.636990000000    -0.0124087  
C286     C      0.946140000000     0.389370000000     0.645700000000    -0.0264761  
C287     C      0.868250000000     0.424500000000     0.683590000000    -0.01212    
C288     C      0.911950000000     0.354630000000     0.661790000000     0.0349952  
C289     C      0.944080000000     0.947170000000     0.086110000000     0.390162   
C290     C      0.585850000000     0.594120000000     0.084440000000     0.38793    
C291     C      0.599600000000     0.939310000000     0.068110000000     0.387852   
C292     C      0.941080000000     0.591380000000     0.086750000000     0.386304   
C293     C      0.928770000000     0.602250000000     0.465830000000     0.398142   
C294     C      0.594010000000     0.942000000000     0.456790000000     0.397793   
C295     C      0.930760000000     0.934980000000     0.467420000000     0.396677   
C296     C      0.593380000000     0.606110000000     0.462470000000     0.39591    
C297     C      0.847690000000     0.850410000000     0.213450000000     0.392831   
C298     C      0.690200000000     0.691170000000     0.202180000000     0.391986   
C299     C      0.844160000000     0.693990000000     0.206300000000     0.390697   
C300     C      0.695870000000     0.844390000000     0.196100000000     0.388446   
C301     C      0.687740000000     0.844210000000     0.329790000000     0.39334    
C302     C      0.835960000000     0.697270000000     0.336990000000     0.391406   
C303     C      0.835810000000     0.841720000000     0.338810000000     0.389385   
C304     C      0.689440000000     0.698350000000     0.332230000000     0.390111   
C305     C      0.591220000000     0.656870000000     0.138970000000    -0.0120252  
C306     C      0.641980000000     0.591160000000     0.145400000000    -0.0262501  
C307     C      0.630900000000     0.688420000000     0.144920000000    -0.0145027  
C308     C      0.682220000000     0.622160000000     0.152410000000     0.0315795  
C309     C      0.690830000000     0.644050000000     0.394750000000    -0.011815   
C310     C      0.635830000000     0.706160000000     0.394630000000    -0.0257625  
C311     C      0.655580000000     0.610910000000     0.409960000000    -0.0130324  
C312     C      0.600230000000     0.675830000000     0.416470000000     0.033195   
C313     C      0.617050000000     0.865530000000     0.101190000000    -0.0122416  
C314     C      0.675200000000     0.924410000000     0.097210000000    -0.0258302  
C315     C      0.629890000000     0.853740000000     0.149080000000    -0.0133652  
C316     C      0.695490000000     0.908530000000     0.142310000000     0.0311324  
C317     C      0.879540000000     0.594580000000     0.142540000000    -0.011825   
C318     C      0.944310000000     0.646240000000     0.148940000000    -0.0260171  
C319     C      0.847570000000     0.633690000000     0.150090000000    -0.0152554  
C320     C      0.913190000000     0.686150000000     0.157360000000     0.0317349  
C321     C      0.831810000000     0.896390000000     0.401060000000    -0.011883   
C322     C      0.884950000000     0.833030000000     0.404680000000    -0.0258365  
C323     C      0.867020000000     0.929300000000     0.416980000000    -0.01231    
C324     C      0.920520000000     0.862630000000     0.427420000000     0.0339911  
C325     C      0.890020000000     0.700880000000     0.399450000000    -0.0114731  
C326     C      0.827600000000     0.646580000000     0.401800000000    -0.0253762  
C327     C      0.923120000000     0.665760000000     0.414960000000    -0.0127107  
C328     C      0.857640000000     0.610800000000     0.423490000000     0.0337739  
C329     C      0.626140000000     0.845110000000     0.385170000000    -0.0109418  
C330     C      0.693010000000     0.892950000000     0.396140000000    -0.0256844  
C331     C      0.595760000000     0.883470000000     0.399440000000    -0.0141512  
C332     C      0.664500000000     0.932070000000     0.412880000000     0.0339304  
C333     C      0.880040000000     0.942160000000     0.136990000000    -0.012411   
C334     C      0.946140000000     0.889370000000     0.145700000000    -0.0264962  
C335     C      0.868250000000     0.924500000000     0.183590000000    -0.0121237  
C336     C      0.911950000000     0.854630000000     0.161790000000     0.035018   
C337     C      0.944080000000     0.947170000000     0.586120000000     0.390188   
C338     C      0.585850000000     0.594120000000     0.584440000000     0.388012   
C339     C      0.599600000000     0.939310000000     0.568110000000     0.387934   
C340     C      0.941080000000     0.591380000000     0.586750000000     0.38635    
C341     C      0.928770000000     0.602250000000     0.965830000000     0.398029   
C342     C      0.594010000000     0.942000000000     0.956790000000     0.397713   
C343     C      0.930760000000     0.934980000000     0.967420000000     0.396595   
C344     C      0.593380000000     0.606110000000     0.962470000000     0.395825   
C345     C      0.847690000000     0.850410000000     0.713450000000     0.392839   
C346     C      0.690200000000     0.691170000000     0.702180000000     0.391991   
C347     C      0.844160000000     0.693990000000     0.706300000000     0.390702   
C348     C      0.695870000000     0.844390000000     0.696100000000     0.388452   
C349     C      0.687740000000     0.844210000000     0.829790000000     0.393404   
C350     C      0.835960000000     0.697270000000     0.836990000000     0.391406   
C351     C      0.835810000000     0.841720000000     0.838800000000     0.389369   
C352     C      0.689440000000     0.698350000000     0.832220000000     0.390164   
C353     C      0.591220000000     0.656870000000     0.638970000000    -0.0120114  
C354     C      0.641980000000     0.591160000000     0.645400000000    -0.0262359  
C355     C      0.630900000000     0.688420000000     0.644920000000    -0.014513   
C356     C      0.682220000000     0.622160000000     0.652410000000     0.031574   
C357     C      0.690830000000     0.644050000000     0.894740000000    -0.0117943  
C358     C      0.635830000000     0.706160000000     0.894620000000    -0.025734   
C359     C      0.655580000000     0.610910000000     0.909960000000    -0.0130427  
C360     C      0.600230000000     0.675830000000     0.916470000000     0.0331527  
C361     C      0.617050000000     0.865530000000     0.601190000000    -0.0122557  
C362     C      0.675200000000     0.924410000000     0.597210000000    -0.0258719  
C363     C      0.629890000000     0.853740000000     0.649080000000    -0.0133535  
C364     C      0.695490000000     0.908530000000     0.642310000000     0.0311413  
C365     C      0.879540000000     0.594580000000     0.642540000000    -0.011822   
C366     C      0.944310000000     0.646240000000     0.648940000000    -0.0260081  
C367     C      0.847570000000     0.633690000000     0.650090000000    -0.0152365  
C368     C      0.913190000000     0.686150000000     0.657360000000     0.0317324  
C369     C      0.831810000000     0.896390000000     0.901060000000    -0.011903   
C370     C      0.884950000000     0.833030000000     0.904680000000    -0.0258318  
C371     C      0.867020000000     0.929300000000     0.916980000000    -0.0122809  
C372     C      0.920520000000     0.862630000000     0.927410000000     0.0339477  
C373     C      0.890020000000     0.700880000000     0.899450000000    -0.0114532  
C374     C      0.827600000000     0.646580000000     0.901800000000    -0.0253687  
C375     C      0.923120000000     0.665760000000     0.914960000000    -0.0127167  
C376     C      0.857640000000     0.610800000000     0.923490000000     0.0337321  
C377     C      0.626140000000     0.845110000000     0.885170000000    -0.0109517  
C378     C      0.693010000000     0.892950000000     0.896140000000    -0.0256866  
C379     C      0.595760000000     0.883470000000     0.899430000000    -0.0141725  
C380     C      0.664500000000     0.932070000000     0.912880000000     0.0338934  
C381     C      0.880040000000     0.942160000000     0.636990000000    -0.0124116  
C382     C      0.946140000000     0.889370000000     0.645700000000    -0.0264777  
C383     C      0.868250000000     0.924500000000     0.683590000000    -0.0121206  
C384     C      0.911950000000     0.854630000000     0.661790000000     0.0349959  
Co1      Co     0.448090000000     0.019380000000     0.017710000000     0.840903   
Co2      Co     0.079660000000     0.521940000000     0.515140000000     0.835689   
Co3      Co     0.515490000000     0.454710000000     0.016730000000     0.831937   
Co4      Co     0.512720000000     0.086610000000     0.517430000000     0.836126   
Co5      Co     0.265680000000     0.336710000000     0.268160000000     0.845534   
Co6      Co     0.264980000000     0.203910000000     0.267190000000     0.84132    
Co7      Co     0.330300000000     0.270040000000     0.269180000000     0.840764   
Co8      Co     0.199020000000     0.270400000000     0.263410000000     0.844186   
Co9      Co     0.448090000000     0.019380000000     0.517710000000     0.841777   
Co10     Co     0.079660000000     0.521940000000     0.015140000000     0.834803   
Co11     Co     0.515490000000     0.454710000000     0.516730000000     0.832828   
Co12     Co     0.512720000000     0.086610000000     0.017430000000     0.835165   
Co13     Co     0.265680000000     0.336710000000     0.768160000000     0.845535   
Co14     Co     0.264980000000     0.203910000000     0.767190000000     0.841324   
Co15     Co     0.330300000000     0.270040000000     0.769180000000     0.840711   
Co16     Co     0.199020000000     0.270400000000     0.763410000000     0.844187   
Co17     Co     0.448090000000     0.519380000000     0.017710000000     0.841118   
Co18     Co     0.079660000000     0.021940000000     0.515140000000     0.835452   
Co19     Co     0.515490000000     0.954710000000     0.016730000000     0.832104   
Co20     Co     0.512720000000     0.586600000000     0.517430000000     0.836      
Co21     Co     0.265680000000     0.836710000000     0.268160000000     0.845539   
Co22     Co     0.264980000000     0.703910000000     0.267190000000     0.841329   
Co23     Co     0.330300000000     0.770040000000     0.269180000000     0.840751   
Co24     Co     0.199020000000     0.770400000000     0.263410000000     0.844184   
Co25     Co     0.448090000000     0.519380000000     0.517710000000     0.841992   
Co26     Co     0.079660000000     0.021940000000     0.015140000000     0.834566   
Co27     Co     0.515490000000     0.954710000000     0.516730000000     0.832995   
Co28     Co     0.512720000000     0.586600000000     0.017430000000     0.835039   
Co29     Co     0.265680000000     0.836710000000     0.768160000000     0.84554    
Co30     Co     0.264980000000     0.703910000000     0.767190000000     0.841333   
Co31     Co     0.330300000000     0.770040000000     0.769180000000     0.840697   
Co32     Co     0.199020000000     0.770400000000     0.763410000000     0.844186   
Co33     Co     0.948090000000     0.019380000000     0.017710000000     0.841051   
Co34     Co     0.579660000000     0.521940000000     0.515140000000     0.835657   
Co35     Co     0.015490000000     0.454710000000     0.016730000000     0.831702   
Co36     Co     0.012720000000     0.086610000000     0.517430000000     0.835915   
Co37     Co     0.765680000000     0.336710000000     0.268160000000     0.84555    
Co38     Co     0.764980000000     0.203910000000     0.267190000000     0.841329   
Co39     Co     0.830300000000     0.270040000000     0.269180000000     0.840758   
Co40     Co     0.699020000000     0.270400000000     0.263410000000     0.844177   
Co41     Co     0.948090000000     0.019380000000     0.517710000000     0.841925   
Co42     Co     0.579660000000     0.521940000000     0.015140000000     0.834771   
Co43     Co     0.015490000000     0.454710000000     0.516730000000     0.832593   
Co44     Co     0.012720000000     0.086610000000     0.017430000000     0.834953   
Co45     Co     0.765680000000     0.336710000000     0.768160000000     0.845551   
Co46     Co     0.764980000000     0.203910000000     0.767190000000     0.841334   
Co47     Co     0.830300000000     0.270040000000     0.769180000000     0.840704   
Co48     Co     0.699020000000     0.270400000000     0.763410000000     0.844179   
Co49     Co     0.948090000000     0.519380000000     0.017710000000     0.841266   
Co50     Co     0.579660000000     0.021940000000     0.515140000000     0.83542    
Co51     Co     0.015490000000     0.954710000000     0.016730000000     0.831869   
Co52     Co     0.012720000000     0.586600000000     0.517430000000     0.835789   
Co53     Co     0.765680000000     0.836710000000     0.268160000000     0.845555   
Co54     Co     0.764980000000     0.703910000000     0.267190000000     0.841338   
Co55     Co     0.830300000000     0.770040000000     0.269180000000     0.840744   
Co56     Co     0.699020000000     0.770400000000     0.263410000000     0.844175   
Co57     Co     0.948090000000     0.519380000000     0.517710000000     0.842141   
Co58     Co     0.579660000000     0.021940000000     0.015140000000     0.834534   
Co59     Co     0.015490000000     0.954710000000     0.516730000000     0.832759   
Co60     Co     0.012720000000     0.586600000000     0.017430000000     0.834827   
Co61     Co     0.765680000000     0.836710000000     0.768160000000     0.845556   
Co62     Co     0.764980000000     0.703910000000     0.767190000000     0.841342   
Co63     Co     0.830300000000     0.770040000000     0.769180000000     0.840691   
Co64     Co     0.699020000000     0.770400000000     0.763410000000     0.844177   
H1       H      0.143270000000     0.197760000000     0.110970000000     0.0426662  
H2       H      0.065900000000     0.173480000000     0.117400000000     0.0478345  
H3       H      0.198080000000     0.127630000000     0.119100000000     0.0344648  
H4       H      0.153270000000     0.059930000000     0.128590000000     0.053706   
H5       H      0.118640000000     0.219610000000     0.161030000000     0.0495247  
H6       H      0.075920000000     0.150930000000     0.172470000000     0.0416345  
H7       H      0.128500000000     0.081560000000     0.178880000000     0.0463071  
H8       H      0.248450000000     0.066380000000     0.159320000000     0.0283048  
H9       H      0.142310000000     0.093310000000     0.379890000000     0.0444742  
H10      H      0.215970000000     0.125780000000     0.374370000000     0.0481381  
H11      H      0.074750000000     0.168030000000     0.390490000000     0.0349096  
H12      H      0.118510000000     0.230830000000     0.372760000000     0.0530044  
H13      H      0.172490000000     0.085380000000     0.431130000000     0.0476379  
H14      H      0.207990000000     0.157630000000     0.424940000000     0.0409942  
H15      H      0.153310000000     0.225700000000     0.421160000000     0.0454941  
H16      H      0.029650000000     0.216010000000     0.447720000000     0.0379234  
H17      H      0.107090000000     0.371650000000     0.172410000000     0.044383   
H18      H      0.081030000000     0.358150000000     0.096570000000     0.0487728  
H19      H      0.189610000000     0.435040000000     0.167850000000     0.0364606  
H20      H      0.180490000000     0.461140000000     0.094440000000     0.0521519  
H21      H      0.123820000000     0.317300000000     0.153620000000     0.0481706  
H22      H      0.136120000000     0.343600000000     0.077900000000     0.0420838  
H23      H      0.193530000000     0.408900000000     0.068640000000     0.0465164  
H24      H      0.272220000000     0.447050000000     0.132510000000     0.0296966  
H25      H      0.336750000000     0.146310000000     0.116680000000     0.0433644  
H26      H      0.362960000000     0.069380000000     0.120750000000     0.0475334  
H27      H      0.407390000000     0.203150000000     0.124650000000     0.0346603  
H28      H      0.475090000000     0.158300000000     0.132000000000     0.0534946  
H29      H      0.317470000000     0.120520000000     0.167210000000     0.0505126  
H30      H      0.386440000000     0.078580000000     0.175550000000     0.041021   
H31      H      0.454500000000     0.131970000000     0.181930000000     0.0454702  
H32      H      0.469250000000     0.252000000000     0.166410000000     0.0283744  
H33      H      0.380620000000     0.447190000000     0.387230000000     0.0445996  
H34      H      0.307670000000     0.414590000000     0.379430000000     0.0475412  
H35      H      0.448210000000     0.367450000000     0.403050000000     0.0352213  
H36      H      0.402490000000     0.307290000000     0.384360000000     0.0523363  
H37      H      0.350070000000     0.454740000000     0.438250000000     0.0473651  
H38      H      0.313400000000     0.383620000000     0.430860000000     0.0404845  
H39      H      0.365500000000     0.314760000000     0.430720000000     0.0448387  
H40      H      0.487060000000     0.323160000000     0.467330000000     0.041011   
H41      H      0.440990000000     0.152500000000     0.385060000000     0.0444285  
H42      H      0.408070000000     0.225540000000     0.378270000000     0.0477073  
H43      H      0.363770000000     0.084290000000     0.398010000000     0.0356373  
H44      H      0.301980000000     0.129250000000     0.381150000000     0.052582   
H45      H      0.448310000000     0.182850000000     0.436340000000     0.0471396  
H46      H      0.376950000000     0.218800000000     0.429440000000     0.0401588  
H47      H      0.309380000000     0.165270000000     0.428460000000     0.0448645  
H48      H      0.319890000000     0.041150000000     0.459920000000     0.0408033  
H49      H      0.082870000000     0.400010000000     0.368600000000     0.04271    
H50      H      0.107970000000     0.323730000000     0.360710000000     0.0468778  
H51      H      0.160860000000     0.456380000000     0.384850000000     0.0351279  
H52      H      0.223200000000     0.406880000000     0.379620000000     0.0540422  
H53      H      0.066560000000     0.368790000000     0.417090000000     0.0482983  
H54      H      0.133790000000     0.324360000000     0.415230000000     0.040695   
H55      H      0.204660000000     0.372990000000     0.425470000000     0.045328   
H56      H      0.203280000000     0.502790000000     0.446100000000     0.0397525  
H57      H      0.390500000000     0.440670000000     0.208660000000     0.0413461  
H58      H      0.378650000000     0.479350000000     0.137690000000     0.0454914  
H59      H      0.429380000000     0.330370000000     0.183990000000     0.037574   
H60      H      0.463680000000     0.403110000000     0.175560000000     0.0438518  
H61      H      0.333670000000     0.434850000000     0.191860000000     0.0487109  
H62      H      0.354560000000     0.430730000000     0.112450000000     0.0482632  
H63      H      0.471880000000     0.372620000000     0.124700000000     0.0527256  
H64      H      0.421670000000     0.293090000000     0.101140000000     0.032912   
H65      H      0.143270000000     0.197760000000     0.610970000000     0.0427454  
H66      H      0.065900000000     0.173480000000     0.617400000000     0.0478769  
H67      H      0.198080000000     0.127630000000     0.619100000000     0.0345328  
H68      H      0.153270000000     0.059930000000     0.628590000000     0.0537232  
H69      H      0.118640000000     0.219610000000     0.661030000000     0.0495417  
H70      H      0.075920000000     0.150930000000     0.672470000000     0.0416227  
H71      H      0.128500000000     0.081560000000     0.678880000000     0.0462914  
H72      H      0.248450000000     0.066380000000     0.659320000000     0.0283309  
H73      H      0.142310000000     0.093310000000     0.879890000000     0.0444694  
H74      H      0.215970000000     0.125780000000     0.874370000000     0.0481358  
H75      H      0.074750000000     0.168030000000     0.890490000000     0.0349094  
H76      H      0.118510000000     0.230830000000     0.872760000000     0.0529988  
H77      H      0.172490000000     0.085380000000     0.931130000000     0.0476774  
H78      H      0.207990000000     0.157630000000     0.924940000000     0.0410391  
H79      H      0.153310000000     0.225700000000     0.921160000000     0.0455297  
H80      H      0.029650000000     0.216010000000     0.947720000000     0.0379345  
H81      H      0.107090000000     0.371650000000     0.672410000000     0.0443726  
H82      H      0.081030000000     0.358150000000     0.596570000000     0.0488298  
H83      H      0.189610000000     0.435040000000     0.667850000000     0.036452   
H84      H      0.180490000000     0.461140000000     0.594440000000     0.0522145  
H85      H      0.123820000000     0.317300000000     0.653620000000     0.0481853  
H86      H      0.136120000000     0.343600000000     0.577900000000     0.0421891  
H87      H      0.193530000000     0.408900000000     0.568650000000     0.0466505  
H88      H      0.272220000000     0.447050000000     0.632510000000     0.0297187  
H89      H      0.336750000000     0.146310000000     0.616670000000     0.0434298  
H90      H      0.362960000000     0.069380000000     0.620750000000     0.0475758  
H91      H      0.407390000000     0.203150000000     0.624650000000     0.0347177  
H92      H      0.475090000000     0.158300000000     0.632000000000     0.0535103  
H93      H      0.317470000000     0.120520000000     0.667210000000     0.050521   
H94      H      0.386440000000     0.078580000000     0.675550000000     0.0410106  
H95      H      0.454500000000     0.131970000000     0.681930000000     0.0454552  
H96      H      0.469250000000     0.252000000000     0.666410000000     0.0283927  
H97      H      0.380620000000     0.447190000000     0.887220000000     0.0445787  
H98      H      0.307670000000     0.414590000000     0.879430000000     0.0475476  
H99      H      0.448210000000     0.367450000000     0.903040000000     0.0352186  
H100     H      0.402490000000     0.307290000000     0.884360000000     0.052333   
H101     H      0.350070000000     0.454740000000     0.938250000000     0.0474023  
H102     H      0.313400000000     0.383620000000     0.930860000000     0.0405502  
H103     H      0.365500000000     0.314760000000     0.930720000000     0.0448891  
H104     H      0.487060000000     0.323160000000     0.967330000000     0.0410476  
H105     H      0.440990000000     0.152500000000     0.885060000000     0.0444234  
H106     H      0.408070000000     0.225540000000     0.878270000000     0.0477046  
H107     H      0.363770000000     0.084290000000     0.898010000000     0.0356342  
H108     H      0.301980000000     0.129250000000     0.881150000000     0.0525804  
H109     H      0.448310000000     0.182850000000     0.936340000000     0.0471796  
H110     H      0.376950000000     0.218800000000     0.929450000000     0.0402013  
H111     H      0.309380000000     0.165270000000     0.928460000000     0.0449104  
H112     H      0.319890000000     0.041150000000     0.959920000000     0.0408258  
H113     H      0.082870000000     0.400010000000     0.868600000000     0.0427148  
H114     H      0.107970000000     0.323730000000     0.860710000000     0.0468822  
H115     H      0.160860000000     0.456380000000     0.884860000000     0.0351285  
H116     H      0.223200000000     0.406880000000     0.879620000000     0.0540477  
H117     H      0.066560000000     0.368790000000     0.917090000000     0.0483292  
H118     H      0.133790000000     0.324360000000     0.915220000000     0.0407492  
H119     H      0.204660000000     0.372990000000     0.925470000000     0.0453852  
H120     H      0.203280000000     0.502790000000     0.946100000000     0.0397644  
H121     H      0.390500000000     0.440670000000     0.708660000000     0.0413341  
H122     H      0.378650000000     0.479350000000     0.637690000000     0.045499   
H123     H      0.429380000000     0.330370000000     0.683990000000     0.0375765  
H124     H      0.463680000000     0.403110000000     0.675560000000     0.0438342  
H125     H      0.333670000000     0.434850000000     0.691860000000     0.0487078  
H126     H      0.354560000000     0.430730000000     0.612450000000     0.0483251  
H127     H      0.471880000000     0.372620000000     0.624700000000     0.0527511  
H128     H      0.421670000000     0.293090000000     0.601140000000     0.0329743  
H129     H      0.143270000000     0.697760000000     0.110970000000     0.0426618  
H130     H      0.065900000000     0.673480000000     0.117400000000     0.0478573  
H131     H      0.198080000000     0.627630000000     0.119100000000     0.0344816  
H132     H      0.153270000000     0.559930000000     0.128590000000     0.0537391  
H133     H      0.118640000000     0.719610000000     0.161030000000     0.0495187  
H134     H      0.075920000000     0.650930000000     0.172470000000     0.0416577  
H135     H      0.128500000000     0.581560000000     0.178880000000     0.0463292  
H136     H      0.248450000000     0.566380000000     0.159320000000     0.0283285  
H137     H      0.142310000000     0.593310000000     0.379890000000     0.0444958  
H138     H      0.215970000000     0.625780000000     0.374370000000     0.0481478  
H139     H      0.074750000000     0.668030000000     0.390490000000     0.0349153  
H140     H      0.118510000000     0.730830000000     0.372760000000     0.0530043  
H141     H      0.172490000000     0.585380000000     0.431130000000     0.0476528  
H142     H      0.207990000000     0.657630000000     0.424940000000     0.0409956  
H143     H      0.153310000000     0.725700000000     0.421160000000     0.0454923  
H144     H      0.029650000000     0.716010000000     0.447720000000     0.0379252  
H145     H      0.107090000000     0.871640000000     0.172410000000     0.0443979  
H146     H      0.081030000000     0.858150000000     0.096570000000     0.0487632  
H147     H      0.189610000000     0.935040000000     0.167850000000     0.0364711  
H148     H      0.180490000000     0.961140000000     0.094440000000     0.0521911  
H149     H      0.123820000000     0.817300000000     0.153620000000     0.0481757  
H150     H      0.136120000000     0.843590000000     0.077900000000     0.0420622  
H151     H      0.193530000000     0.908900000000     0.068640000000     0.0465302  
H152     H      0.272220000000     0.947050000000     0.132510000000     0.0297175  
H153     H      0.336750000000     0.646310000000     0.116680000000     0.0433788  
H154     H      0.362960000000     0.569380000000     0.120750000000     0.04756    
H155     H      0.407390000000     0.703150000000     0.124650000000     0.0346596  
H156     H      0.475090000000     0.658300000000     0.132000000000     0.053497   
H157     H      0.317470000000     0.620520000000     0.167210000000     0.050532   
H158     H      0.386440000000     0.578580000000     0.175550000000     0.0410451  
H159     H      0.454500000000     0.631970000000     0.181930000000     0.0454809  
H160     H      0.469250000000     0.752000000000     0.166410000000     0.0283746  
H161     H      0.380620000000     0.947190000000     0.387230000000     0.0446185  
H162     H      0.307670000000     0.914590000000     0.379430000000     0.0475748  
H163     H      0.448210000000     0.867450000000     0.403050000000     0.0352349  
H164     H      0.402490000000     0.807290000000     0.384360000000     0.0523349  
H165     H      0.350070000000     0.954740000000     0.438250000000     0.0473857  
H166     H      0.313400000000     0.883620000000     0.430860000000     0.0405039  
H167     H      0.365500000000     0.814760000000     0.430720000000     0.0448357  
H168     H      0.487060000000     0.823160000000     0.467330000000     0.0410087  
H169     H      0.440990000000     0.652500000000     0.385060000000     0.0444367  
H170     H      0.408070000000     0.725540000000     0.378270000000     0.0477073  
H171     H      0.363770000000     0.584290000000     0.398010000000     0.0356605  
H172     H      0.301980000000     0.629250000000     0.381150000000     0.0525896  
H173     H      0.448310000000     0.682850000000     0.436340000000     0.0471409  
H174     H      0.376950000000     0.718800000000     0.429440000000     0.0401574  
H175     H      0.309380000000     0.665270000000     0.428460000000     0.0448637  
H176     H      0.319890000000     0.541150000000     0.459920000000     0.0408429  
H177     H      0.082870000000     0.900010000000     0.368600000000     0.042722   
H178     H      0.107970000000     0.823730000000     0.360710000000     0.0468791  
H179     H      0.160860000000     0.956380000000     0.384850000000     0.0351666  
H180     H      0.223200000000     0.906890000000     0.379620000000     0.0540375  
H181     H      0.066560000000     0.868790000000     0.417090000000     0.0482936  
H182     H      0.133790000000     0.824360000000     0.415230000000     0.0406927  
H183     H      0.204660000000     0.872990000000     0.425470000000     0.0453189  
H184     H      0.203280000000     0.002790000000     0.446100000000     0.0396315  
H185     H      0.390500000000     0.940670000000     0.208660000000     0.0413697  
H186     H      0.378650000000     0.979350000000     0.137690000000     0.0455343  
H187     H      0.429380000000     0.830370000000     0.183990000000     0.0375746  
H188     H      0.463680000000     0.903110000000     0.175560000000     0.0438653  
H189     H      0.333670000000     0.934850000000     0.191860000000     0.0487283  
H190     H      0.354560000000     0.930730000000     0.112450000000     0.0482729  
H191     H      0.471880000000     0.872620000000     0.124700000000     0.0527277  
H192     H      0.421670000000     0.793090000000     0.101140000000     0.0329115  
H193     H      0.143270000000     0.697760000000     0.610970000000     0.0427411  
H194     H      0.065900000000     0.673480000000     0.617400000000     0.0478996  
H195     H      0.198080000000     0.627630000000     0.619100000000     0.0345496  
H196     H      0.153270000000     0.559930000000     0.628590000000     0.0537563  
H197     H      0.118640000000     0.719610000000     0.661030000000     0.0495357  
H198     H      0.075920000000     0.650930000000     0.672470000000     0.0416459  
H199     H      0.128500000000     0.581560000000     0.678880000000     0.0463135  
H200     H      0.248450000000     0.566380000000     0.659320000000     0.0283546  
H201     H      0.142310000000     0.593310000000     0.879890000000     0.0444911  
H202     H      0.215970000000     0.625780000000     0.874370000000     0.0481455  
H203     H      0.074750000000     0.668030000000     0.890490000000     0.0349152  
H204     H      0.118510000000     0.730830000000     0.872760000000     0.0529987  
H205     H      0.172490000000     0.585380000000     0.931130000000     0.0476922  
H206     H      0.207990000000     0.657630000000     0.924940000000     0.0410404  
H207     H      0.153310000000     0.725700000000     0.921160000000     0.045528   
H208     H      0.029650000000     0.716010000000     0.947720000000     0.0379363  
H209     H      0.107090000000     0.871640000000     0.672410000000     0.0443876  
H210     H      0.081030000000     0.858150000000     0.596570000000     0.0488202  
H211     H      0.189610000000     0.935040000000     0.667850000000     0.0364624  
H212     H      0.180490000000     0.961140000000     0.594440000000     0.0522537  
H213     H      0.123820000000     0.817300000000     0.653620000000     0.0481904  
H214     H      0.136120000000     0.843590000000     0.577900000000     0.0421675  
H215     H      0.193530000000     0.908900000000     0.568650000000     0.0466643  
H216     H      0.272220000000     0.947050000000     0.632510000000     0.0297395  
H217     H      0.336750000000     0.646310000000     0.616670000000     0.0434442  
H218     H      0.362960000000     0.569380000000     0.620750000000     0.0476025  
H219     H      0.407390000000     0.703150000000     0.624650000000     0.034717   
H220     H      0.475090000000     0.658300000000     0.632000000000     0.0535127  
H221     H      0.317470000000     0.620520000000     0.667210000000     0.0505403  
H222     H      0.386440000000     0.578580000000     0.675550000000     0.0410348  
H223     H      0.454500000000     0.631970000000     0.681930000000     0.0454659  
H224     H      0.469250000000     0.752000000000     0.666410000000     0.028393   
H225     H      0.380620000000     0.947190000000     0.887220000000     0.0445975  
H226     H      0.307670000000     0.914590000000     0.879430000000     0.0475811  
H227     H      0.448210000000     0.867450000000     0.903040000000     0.0352322  
H228     H      0.402490000000     0.807290000000     0.884360000000     0.0523315  
H229     H      0.350070000000     0.954740000000     0.938250000000     0.0474229  
H230     H      0.313400000000     0.883620000000     0.930860000000     0.0405696  
H231     H      0.365500000000     0.814760000000     0.930720000000     0.0448861  
H232     H      0.487060000000     0.823160000000     0.967330000000     0.0410453  
H233     H      0.440990000000     0.652500000000     0.885060000000     0.0444316  
H234     H      0.408070000000     0.725540000000     0.878270000000     0.0477045  
H235     H      0.363770000000     0.584290000000     0.898010000000     0.0356574  
H236     H      0.301980000000     0.629250000000     0.881150000000     0.052588   
H237     H      0.448310000000     0.682850000000     0.936340000000     0.047181   
H238     H      0.376950000000     0.718800000000     0.929450000000     0.0402     
H239     H      0.309380000000     0.665270000000     0.928460000000     0.0449097  
H240     H      0.319890000000     0.541150000000     0.959920000000     0.0408653  
H241     H      0.082870000000     0.900010000000     0.868600000000     0.0427268  
H242     H      0.107970000000     0.823730000000     0.860710000000     0.0468836  
H243     H      0.160860000000     0.956380000000     0.884860000000     0.0351672  
H244     H      0.223200000000     0.906890000000     0.879620000000     0.054043   
H245     H      0.066560000000     0.868790000000     0.917090000000     0.0483245  
H246     H      0.133790000000     0.824360000000     0.915220000000     0.0407468  
H247     H      0.204660000000     0.872990000000     0.925470000000     0.0453761  
H248     H      0.203280000000     0.002790000000     0.946100000000     0.0396434  
H249     H      0.390500000000     0.940670000000     0.708660000000     0.0413576  
H250     H      0.378650000000     0.979350000000     0.637690000000     0.0455419  
H251     H      0.429380000000     0.830370000000     0.683990000000     0.037577   
H252     H      0.463680000000     0.903110000000     0.675560000000     0.0438477  
H253     H      0.333670000000     0.934850000000     0.691860000000     0.0487252  
H254     H      0.354560000000     0.930730000000     0.612450000000     0.0483348  
H255     H      0.471880000000     0.872620000000     0.624700000000     0.0527532  
H256     H      0.421670000000     0.793090000000     0.601140000000     0.0329738  
H257     H      0.643270000000     0.197760000000     0.110970000000     0.042671   
H258     H      0.565900000000     0.173480000000     0.117400000000     0.0478635  
H259     H      0.698080000000     0.127630000000     0.119100000000     0.0344632  
H260     H      0.653270000000     0.059930000000     0.128590000000     0.0537092  
H261     H      0.618650000000     0.219610000000     0.161030000000     0.0495471  
H262     H      0.575920000000     0.150930000000     0.172470000000     0.0416617  
H263     H      0.628500000000     0.081560000000     0.178880000000     0.0463186  
H264     H      0.748450000000     0.066380000000     0.159320000000     0.0283038  
H265     H      0.642310000000     0.093310000000     0.379890000000     0.0444821  
H266     H      0.715970000000     0.125780000000     0.374370000000     0.0481389  
H267     H      0.574750000000     0.168030000000     0.390490000000     0.0349316  
H268     H      0.618510000000     0.230830000000     0.372760000000     0.0530155  
H269     H      0.672490000000     0.085380000000     0.431130000000     0.0476381  
H270     H      0.707990000000     0.157630000000     0.424940000000     0.0409939  
H271     H      0.653300000000     0.225700000000     0.421160000000     0.0454976  
H272     H      0.529650000000     0.216010000000     0.447720000000     0.0379649  
H273     H      0.607090000000     0.371650000000     0.172410000000     0.0444024  
H274     H      0.581030000000     0.358150000000     0.096570000000     0.0487981  
H275     H      0.689610000000     0.435040000000     0.167850000000     0.0364652  
H276     H      0.680500000000     0.461140000000     0.094440000000     0.0521408  
H277     H      0.623820000000     0.317300000000     0.153620000000     0.0481812  
H278     H      0.636120000000     0.343600000000     0.077900000000     0.0420872  
H279     H      0.693530000000     0.408900000000     0.068640000000     0.0465114  
H280     H      0.772220000000     0.447050000000     0.132510000000     0.0296958  
H281     H      0.836750000000     0.146310000000     0.116680000000     0.0433639  
H282     H      0.862960000000     0.069380000000     0.120750000000     0.0475329  
H283     H      0.907390000000     0.203150000000     0.124650000000     0.0346634  
H284     H      0.975090000000     0.158300000000     0.132000000000     0.0535284  
H285     H      0.817470000000     0.120520000000     0.167210000000     0.0505151  
H286     H      0.886440000000     0.078580000000     0.175550000000     0.0410283  
H287     H      0.954500000000     0.131970000000     0.181930000000     0.0454958  
H288     H      0.969250000000     0.252000000000     0.166410000000     0.0283956  
H289     H      0.880620000000     0.447190000000     0.387230000000     0.044609   
H290     H      0.807670000000     0.414590000000     0.379430000000     0.0475425  
H291     H      0.948210000000     0.367450000000     0.403050000000     0.0352458  
H292     H      0.902490000000     0.307290000000     0.384360000000     0.0523449  
H293     H      0.850070000000     0.454740000000     0.438250000000     0.0473655  
H294     H      0.813400000000     0.383620000000     0.430860000000     0.0404838  
H295     H      0.865500000000     0.314760000000     0.430720000000     0.0448382  
H296     H      0.987060000000     0.323160000000     0.467330000000     0.0410522  
H297     H      0.940990000000     0.152500000000     0.385060000000     0.0444553  
H298     H      0.908070000000     0.225540000000     0.378270000000     0.0477177  
H299     H      0.863770000000     0.084290000000     0.398010000000     0.0356476  
H300     H      0.801980000000     0.129250000000     0.381150000000     0.0525581  
H301     H      0.948310000000     0.182850000000     0.436340000000     0.0471685  
H302     H      0.876950000000     0.218800000000     0.429440000000     0.0401592  
H303     H      0.809380000000     0.165270000000     0.428460000000     0.0448403  
H304     H      0.819890000000     0.041150000000     0.459920000000     0.040802   
H305     H      0.582870000000     0.400010000000     0.368600000000     0.0427347  
H306     H      0.607970000000     0.323730000000     0.360710000000     0.0468929  
H307     H      0.660860000000     0.456380000000     0.384850000000     0.035133   
H308     H      0.723200000000     0.406880000000     0.379620000000     0.0540445  
H309     H      0.566560000000     0.368790000000     0.417090000000     0.0483287  
H310     H      0.633800000000     0.324360000000     0.415230000000     0.0407017  
H311     H      0.704660000000     0.372990000000     0.425470000000     0.0453298  
H312     H      0.703280000000     0.502790000000     0.446100000000     0.0397568  
H313     H      0.890500000000     0.440670000000     0.208660000000     0.041356   
H314     H      0.878650000000     0.479350000000     0.137690000000     0.0454945  
H315     H      0.929380000000     0.330370000000     0.183990000000     0.0375845  
H316     H      0.963680000000     0.403110000000     0.175560000000     0.04388    
H317     H      0.833670000000     0.434850000000     0.191860000000     0.048712   
H318     H      0.854560000000     0.430730000000     0.112450000000     0.0482615  
H319     H      0.971880000000     0.372620000000     0.124700000000     0.0527539  
H320     H      0.921670000000     0.293090000000     0.101140000000     0.0329227  
H321     H      0.643270000000     0.197760000000     0.610970000000     0.0427502  
H322     H      0.565900000000     0.173480000000     0.617400000000     0.0479058  
H323     H      0.698080000000     0.127630000000     0.619100000000     0.0345312  
H324     H      0.653270000000     0.059930000000     0.628590000000     0.0537264  
H325     H      0.618650000000     0.219610000000     0.661030000000     0.0495641  
H326     H      0.575920000000     0.150930000000     0.672470000000     0.0416498  
H327     H      0.628500000000     0.081560000000     0.678880000000     0.0463029  
H328     H      0.748450000000     0.066380000000     0.659320000000     0.02833    
H329     H      0.642310000000     0.093310000000     0.879890000000     0.0444774  
H330     H      0.715970000000     0.125780000000     0.874370000000     0.0481366  
H331     H      0.574750000000     0.168030000000     0.890490000000     0.0349314  
H332     H      0.618510000000     0.230830000000     0.872760000000     0.0530099  
H333     H      0.672490000000     0.085380000000     0.931130000000     0.0476776  
H334     H      0.707990000000     0.157630000000     0.924940000000     0.0410387  
H335     H      0.653300000000     0.225700000000     0.921160000000     0.0455332  
H336     H      0.529650000000     0.216010000000     0.947720000000     0.037976   
H337     H      0.607090000000     0.371650000000     0.672410000000     0.044392   
H338     H      0.581030000000     0.358150000000     0.596570000000     0.0488552  
H339     H      0.689610000000     0.435040000000     0.667850000000     0.0364566  
H340     H      0.680500000000     0.461140000000     0.594440000000     0.0522034  
H341     H      0.623820000000     0.317300000000     0.653620000000     0.048196   
H342     H      0.636120000000     0.343600000000     0.577900000000     0.0421925  
H343     H      0.693530000000     0.408900000000     0.568650000000     0.0466455  
H344     H      0.772220000000     0.447050000000     0.632510000000     0.0297179  
H345     H      0.836750000000     0.146310000000     0.616670000000     0.0434293  
H346     H      0.862960000000     0.069380000000     0.620750000000     0.0475754  
H347     H      0.907390000000     0.203150000000     0.624650000000     0.0347208  
H348     H      0.975090000000     0.158300000000     0.632000000000     0.0535441  
H349     H      0.817470000000     0.120520000000     0.667210000000     0.0505235  
H350     H      0.886440000000     0.078580000000     0.675550000000     0.0410179  
H351     H      0.954500000000     0.131970000000     0.681930000000     0.0454808  
H352     H      0.969250000000     0.252000000000     0.666410000000     0.028414   
H353     H      0.880620000000     0.447190000000     0.887220000000     0.044588   
H354     H      0.807670000000     0.414590000000     0.879430000000     0.0475489  
H355     H      0.948210000000     0.367450000000     0.903040000000     0.0352431  
H356     H      0.902490000000     0.307290000000     0.884360000000     0.0523415  
H357     H      0.850070000000     0.454740000000     0.938250000000     0.0474028  
H358     H      0.813400000000     0.383620000000     0.930860000000     0.0405495  
H359     H      0.865500000000     0.314760000000     0.930720000000     0.0448886  
H360     H      0.987060000000     0.323160000000     0.967330000000     0.0410888  
H361     H      0.940990000000     0.152500000000     0.885060000000     0.0444502  
H362     H      0.908070000000     0.225540000000     0.878270000000     0.0477149  
H363     H      0.863770000000     0.084290000000     0.898010000000     0.0356445  
H364     H      0.801980000000     0.129250000000     0.881150000000     0.0525564  
H365     H      0.948310000000     0.182850000000     0.936340000000     0.0472085  
H366     H      0.876950000000     0.218800000000     0.929450000000     0.0402017  
H367     H      0.809380000000     0.165270000000     0.928460000000     0.0448862  
H368     H      0.819890000000     0.041150000000     0.959920000000     0.0408245  
H369     H      0.582870000000     0.400010000000     0.868600000000     0.0427395  
H370     H      0.607970000000     0.323730000000     0.860710000000     0.0468973  
H371     H      0.660860000000     0.456380000000     0.884860000000     0.0351336  
H372     H      0.723200000000     0.406880000000     0.879620000000     0.05405    
H373     H      0.566560000000     0.368790000000     0.917090000000     0.0483596  
H374     H      0.633800000000     0.324360000000     0.915220000000     0.0407559  
H375     H      0.704660000000     0.372990000000     0.925470000000     0.045387   
H376     H      0.703280000000     0.502790000000     0.946100000000     0.0397687  
H377     H      0.890500000000     0.440670000000     0.708660000000     0.0413439  
H378     H      0.878650000000     0.479350000000     0.637690000000     0.045502   
H379     H      0.929380000000     0.330370000000     0.683990000000     0.0375869  
H380     H      0.963680000000     0.403110000000     0.675560000000     0.0438624  
H381     H      0.833670000000     0.434850000000     0.691860000000     0.0487089  
H382     H      0.854560000000     0.430730000000     0.612450000000     0.0483234  
H383     H      0.971880000000     0.372620000000     0.624700000000     0.0527795  
H384     H      0.921670000000     0.293090000000     0.601140000000     0.032985   
H385     H      0.643270000000     0.697760000000     0.110970000000     0.0426666  
H386     H      0.565900000000     0.673480000000     0.117400000000     0.0478862  
H387     H      0.698080000000     0.627630000000     0.119100000000     0.0344801  
H388     H      0.653270000000     0.559930000000     0.128590000000     0.0537423  
H389     H      0.618650000000     0.719610000000     0.161030000000     0.0495411  
H390     H      0.575920000000     0.650930000000     0.172470000000     0.0416849  
H391     H      0.628500000000     0.581560000000     0.178880000000     0.0463407  
H392     H      0.748450000000     0.566380000000     0.159320000000     0.0283275  
H393     H      0.642310000000     0.593310000000     0.379890000000     0.0445038  
H394     H      0.715970000000     0.625780000000     0.374370000000     0.0481486  
H395     H      0.574750000000     0.668030000000     0.390490000000     0.0349374  
H396     H      0.618510000000     0.730830000000     0.372760000000     0.0530154  
H397     H      0.672490000000     0.585380000000     0.431130000000     0.0476529  
H398     H      0.707990000000     0.657630000000     0.424940000000     0.0409952  
H399     H      0.653300000000     0.725700000000     0.421160000000     0.0454959  
H400     H      0.529650000000     0.716010000000     0.447720000000     0.0379667  
H401     H      0.607090000000     0.871640000000     0.172410000000     0.0444173  
H402     H      0.581030000000     0.858150000000     0.096570000000     0.0487885  
H403     H      0.689610000000     0.935040000000     0.167850000000     0.0364756  
H404     H      0.680500000000     0.961140000000     0.094440000000     0.05218    
H405     H      0.623820000000     0.817300000000     0.153620000000     0.0481863  
H406     H      0.636120000000     0.843590000000     0.077900000000     0.0420656  
H407     H      0.693530000000     0.908900000000     0.068640000000     0.0465252  
H408     H      0.772220000000     0.947050000000     0.132510000000     0.0297167  
H409     H      0.836750000000     0.646310000000     0.116680000000     0.0433783  
H410     H      0.862960000000     0.569380000000     0.120750000000     0.0475596  
H411     H      0.907390000000     0.703150000000     0.124650000000     0.0346627  
H412     H      0.975090000000     0.658300000000     0.132000000000     0.0535308  
H413     H      0.817470000000     0.620520000000     0.167210000000     0.0505344  
H414     H      0.886440000000     0.578580000000     0.175550000000     0.0410525  
H415     H      0.954500000000     0.631970000000     0.181930000000     0.0455065  
H416     H      0.969250000000     0.752000000000     0.166410000000     0.0283959  
H417     H      0.880620000000     0.947190000000     0.387230000000     0.0446278  
H418     H      0.807670000000     0.914590000000     0.379430000000     0.0475761  
H419     H      0.948210000000     0.867450000000     0.403050000000     0.0352594  
H420     H      0.902490000000     0.807290000000     0.384360000000     0.0523434  
H421     H      0.850070000000     0.954740000000     0.438250000000     0.0473861  
H422     H      0.813400000000     0.883620000000     0.430860000000     0.0405032  
H423     H      0.865500000000     0.814760000000     0.430720000000     0.0448352  
H424     H      0.987060000000     0.823160000000     0.467330000000     0.0410498  
H425     H      0.940990000000     0.652500000000     0.385060000000     0.0444635  
H426     H      0.908070000000     0.725540000000     0.378270000000     0.0477177  
H427     H      0.863770000000     0.584290000000     0.398010000000     0.0356708  
H428     H      0.801980000000     0.629250000000     0.381150000000     0.0525656  
H429     H      0.948310000000     0.682850000000     0.436340000000     0.0471698  
H430     H      0.876950000000     0.718800000000     0.429440000000     0.0401579  
H431     H      0.809380000000     0.665270000000     0.428460000000     0.0448395  
H432     H      0.819890000000     0.541150000000     0.459920000000     0.0408416  
H433     H      0.582870000000     0.900010000000     0.368600000000     0.0427468  
H434     H      0.607970000000     0.823730000000     0.360710000000     0.0468942  
H435     H      0.660860000000     0.956380000000     0.384850000000     0.0351717  
H436     H      0.723200000000     0.906890000000     0.379620000000     0.0540399  
H437     H      0.566560000000     0.868790000000     0.417090000000     0.048324   
H438     H      0.633800000000     0.824360000000     0.415230000000     0.0406993  
H439     H      0.704660000000     0.872990000000     0.425470000000     0.0453207  
H440     H      0.703280000000     0.002790000000     0.446100000000     0.0396357  
H441     H      0.890500000000     0.940670000000     0.208660000000     0.0413795  
H442     H      0.878650000000     0.979350000000     0.137690000000     0.0455374  
H443     H      0.929380000000     0.830370000000     0.183990000000     0.037585   
H444     H      0.963680000000     0.903110000000     0.175560000000     0.0438935  
H445     H      0.833670000000     0.934850000000     0.191860000000     0.0487295  
H446     H      0.854560000000     0.930730000000     0.112450000000     0.0482712  
H447     H      0.971880000000     0.872620000000     0.124700000000     0.0527561  
H448     H      0.921670000000     0.793090000000     0.101140000000     0.0329222  
H449     H      0.643270000000     0.697760000000     0.610970000000     0.0427458  
H450     H      0.565900000000     0.673480000000     0.617400000000     0.0479286  
H451     H      0.698080000000     0.627630000000     0.619100000000     0.034548   
H452     H      0.653270000000     0.559930000000     0.628590000000     0.0537595  
H453     H      0.618650000000     0.719610000000     0.661030000000     0.0495581  
H454     H      0.575920000000     0.650930000000     0.672470000000     0.041673   
H455     H      0.628500000000     0.581560000000     0.678880000000     0.046325   
H456     H      0.748450000000     0.566380000000     0.659320000000     0.0283537  
H457     H      0.642310000000     0.593310000000     0.879890000000     0.0444991  
H458     H      0.715970000000     0.625780000000     0.874370000000     0.0481463  
H459     H      0.574750000000     0.668030000000     0.890490000000     0.0349372  
H460     H      0.618510000000     0.730830000000     0.872760000000     0.0530098  
H461     H      0.672490000000     0.585380000000     0.931130000000     0.0476924  
H462     H      0.707990000000     0.657630000000     0.924940000000     0.0410401  
H463     H      0.653300000000     0.725700000000     0.921160000000     0.0455315  
H464     H      0.529650000000     0.716010000000     0.947720000000     0.0379778  
H465     H      0.607090000000     0.871640000000     0.672410000000     0.044407   
H466     H      0.581030000000     0.858150000000     0.596570000000     0.0488455  
H467     H      0.689610000000     0.935040000000     0.667850000000     0.036467   
H468     H      0.680500000000     0.961140000000     0.594440000000     0.0522426  
H469     H      0.623820000000     0.817300000000     0.653620000000     0.048201   
H470     H      0.636120000000     0.843590000000     0.577900000000     0.042171   
H471     H      0.693530000000     0.908900000000     0.568650000000     0.0466593  
H472     H      0.772220000000     0.947050000000     0.632510000000     0.0297388  
H473     H      0.836750000000     0.646310000000     0.616670000000     0.0434437  
H474     H      0.862960000000     0.569380000000     0.620750000000     0.047602   
H475     H      0.907390000000     0.703150000000     0.624650000000     0.03472    
H476     H      0.975090000000     0.658300000000     0.632000000000     0.0535465  
H477     H      0.817470000000     0.620520000000     0.667210000000     0.0505428  
H478     H      0.886440000000     0.578580000000     0.675550000000     0.0410421  
H479     H      0.954500000000     0.631970000000     0.681930000000     0.0454915  
H480     H      0.969250000000     0.752000000000     0.666410000000     0.0284142  
H481     H      0.880620000000     0.947190000000     0.887220000000     0.0446068  
H482     H      0.807670000000     0.914590000000     0.879430000000     0.0475825  
H483     H      0.948210000000     0.867450000000     0.903040000000     0.0352567  
H484     H      0.902490000000     0.807290000000     0.884360000000     0.05234    
H485     H      0.850070000000     0.954740000000     0.938250000000     0.0474234  
H486     H      0.813400000000     0.883620000000     0.930860000000     0.0405689  
H487     H      0.865500000000     0.814760000000     0.930720000000     0.0448856  
H488     H      0.987060000000     0.823160000000     0.967330000000     0.0410864  
H489     H      0.940990000000     0.652500000000     0.885060000000     0.0444584  
H490     H      0.908070000000     0.725540000000     0.878270000000     0.0477149  
H491     H      0.863770000000     0.584290000000     0.898010000000     0.0356678  
H492     H      0.801980000000     0.629250000000     0.881150000000     0.052564   
H493     H      0.948310000000     0.682850000000     0.936340000000     0.0472098  
H494     H      0.876950000000     0.718800000000     0.929450000000     0.0402004  
H495     H      0.809380000000     0.665270000000     0.928460000000     0.0448855  
H496     H      0.819890000000     0.541150000000     0.959920000000     0.0408641  
H497     H      0.582870000000     0.900010000000     0.868600000000     0.0427516  
H498     H      0.607970000000     0.823730000000     0.860710000000     0.0468987  
H499     H      0.660860000000     0.956380000000     0.884860000000     0.0351724  
H500     H      0.723200000000     0.906890000000     0.879620000000     0.0540454  
H501     H      0.566560000000     0.868790000000     0.917090000000     0.0483549  
H502     H      0.633800000000     0.824360000000     0.915220000000     0.0407535  
H503     H      0.704660000000     0.872990000000     0.925470000000     0.0453779  
H504     H      0.703280000000     0.002790000000     0.946100000000     0.0396477  
H505     H      0.890500000000     0.940670000000     0.708660000000     0.0413674  
H506     H      0.878650000000     0.979350000000     0.637690000000     0.0455449  
H507     H      0.929380000000     0.830370000000     0.683990000000     0.0375875  
H508     H      0.963680000000     0.903110000000     0.675560000000     0.0438759  
H509     H      0.833670000000     0.934850000000     0.691860000000     0.0487263  
H510     H      0.854560000000     0.930730000000     0.612450000000     0.0483332  
H511     H      0.971880000000     0.872620000000     0.624700000000     0.0527816  
H512     H      0.921670000000     0.793090000000     0.601140000000     0.0329845  
N1       N      0.167750000000     0.166760000000     0.169990000000    -0.16472    
N2       N      0.106420000000     0.113980000000     0.120360000000    -0.160867   
N3       N      0.117980000000     0.132490000000     0.433750000000    -0.165519   
N4       N      0.169970000000     0.180910000000     0.370030000000    -0.159907   
N5       N      0.176350000000     0.366100000000     0.160260000000    -0.164526   
N6       N      0.128100000000     0.412350000000     0.091870000000    -0.15962    
N7       N      0.368970000000     0.170940000000     0.174900000000    -0.1642     
N8       N      0.421560000000     0.110970000000     0.123390000000    -0.160566   
N9       N      0.404450000000     0.407800000000     0.441160000000    -0.165577   
N10      N      0.353030000000     0.358840000000     0.377820000000    -0.159805   
N11      N      0.401860000000     0.127890000000     0.438730000000    -0.166181   
N12      N      0.352990000000     0.179450000000     0.375710000000    -0.160304   
N13      N      0.119040000000     0.417560000000     0.426940000000    -0.16624    
N14      N      0.167800000000     0.362820000000     0.366650000000    -0.161115   
N15      N      0.374460000000     0.375630000000     0.186180000000    -0.166558   
N16      N      0.424210000000     0.426650000000     0.121910000000    -0.160068   
N17      N      0.167750000000     0.166760000000     0.669990000000    -0.164713   
N18      N      0.106420000000     0.113980000000     0.620360000000    -0.160869   
N19      N      0.117980000000     0.132490000000     0.933750000000    -0.165473   
N20      N      0.169970000000     0.180910000000     0.870030000000    -0.159879   
N21      N      0.176350000000     0.366100000000     0.660260000000    -0.164523   
N22      N      0.128100000000     0.412350000000     0.591870000000    -0.1596     
N23      N      0.368970000000     0.170940000000     0.674900000000    -0.164197   
N24      N      0.421560000000     0.110970000000     0.623390000000    -0.160564   
N25      N      0.404450000000     0.407800000000     0.941160000000    -0.165531   
N26      N      0.353030000000     0.358840000000     0.877830000000    -0.159725   
N27      N      0.401860000000     0.127890000000     0.938730000000    -0.166132   
N28      N      0.352990000000     0.179450000000     0.875710000000    -0.160305   
N29      N      0.119040000000     0.417560000000     0.926940000000    -0.166191   
N30      N      0.167800000000     0.362820000000     0.866640000000    -0.161151   
N31      N      0.374460000000     0.375630000000     0.686180000000    -0.166555   
N32      N      0.424210000000     0.426650000000     0.621910000000    -0.1601     
N33      N      0.167750000000     0.666760000000     0.169990000000    -0.164713   
N34      N      0.106420000000     0.613980000000     0.120360000000    -0.160831   
N35      N      0.117980000000     0.632490000000     0.433750000000    -0.165537   
N36      N      0.169970000000     0.680910000000     0.370030000000    -0.159906   
N37      N      0.176350000000     0.866100000000     0.160260000000    -0.164533   
N38      N      0.128100000000     0.912340000000     0.091870000000    -0.159568   
N39      N      0.368970000000     0.670940000000     0.174900000000    -0.164213   
N40      N      0.421560000000     0.610970000000     0.123390000000    -0.16056    
N41      N      0.404450000000     0.907810000000     0.441160000000    -0.165603   
N42      N      0.353030000000     0.858840000000     0.377820000000    -0.159796   
N43      N      0.401860000000     0.627890000000     0.438730000000    -0.166175   
N44      N      0.352990000000     0.679450000000     0.375710000000    -0.160304   
N45      N      0.119040000000     0.917560000000     0.426940000000    -0.166273   
N46      N      0.167800000000     0.862820000000     0.366650000000    -0.161116   
N47      N      0.374460000000     0.875630000000     0.186180000000    -0.166557   
N48      N      0.424210000000     0.926650000000     0.121910000000    -0.160059   
N49      N      0.167750000000     0.666760000000     0.669990000000    -0.164706   
N50      N      0.106420000000     0.613980000000     0.620360000000    -0.160834   
N51      N      0.117980000000     0.632490000000     0.933750000000    -0.16549    
N52      N      0.169970000000     0.680910000000     0.870030000000    -0.159878   
N53      N      0.176350000000     0.866100000000     0.660260000000    -0.16453    
N54      N      0.128100000000     0.912340000000     0.591870000000    -0.159548   
N55      N      0.368970000000     0.670940000000     0.674900000000    -0.16421    
N56      N      0.421560000000     0.610970000000     0.623390000000    -0.160557   
N57      N      0.404450000000     0.907810000000     0.941160000000    -0.165557   
N58      N      0.353030000000     0.858840000000     0.877830000000    -0.159715   
N59      N      0.401860000000     0.627890000000     0.938730000000    -0.166126   
N60      N      0.352990000000     0.679450000000     0.875710000000    -0.160304   
N61      N      0.119040000000     0.917560000000     0.926940000000    -0.166224   
N62      N      0.167800000000     0.862820000000     0.866640000000    -0.161152   
N63      N      0.374460000000     0.875630000000     0.686180000000    -0.166555   
N64      N      0.424210000000     0.926650000000     0.621910000000    -0.160091   
N65      N      0.667750000000     0.166760000000     0.169990000000    -0.164718   
N66      N      0.606420000000     0.113980000000     0.120360000000    -0.160862   
N67      N      0.617980000000     0.132490000000     0.433750000000    -0.165517   
N68      N      0.669970000000     0.180910000000     0.370030000000    -0.159903   
N69      N      0.676350000000     0.366100000000     0.160260000000    -0.164524   
N70      N      0.628100000000     0.412350000000     0.091870000000    -0.159618   
N71      N      0.868970000000     0.170940000000     0.174900000000    -0.164177   
N72      N      0.921560000000     0.110970000000     0.123390000000    -0.160559   
N73      N      0.904450000000     0.407800000000     0.441160000000    -0.165572   
N74      N      0.853030000000     0.358840000000     0.377820000000    -0.159804   
N75      N      0.901860000000     0.127890000000     0.438730000000    -0.166172   
N76      N      0.852990000000     0.179450000000     0.375710000000    -0.160315   
N77      N      0.619040000000     0.417560000000     0.426940000000    -0.166215   
N78      N      0.667800000000     0.362820000000     0.366650000000    -0.161091   
N79      N      0.874460000000     0.375630000000     0.186180000000    -0.166557   
N80      N      0.924210000000     0.426650000000     0.121910000000    -0.16006    
N81      N      0.667750000000     0.166760000000     0.669990000000    -0.16471    
N82      N      0.606420000000     0.113980000000     0.620360000000    -0.160864   
N83      N      0.617980000000     0.132490000000     0.933750000000    -0.16547    
N84      N      0.669970000000     0.180910000000     0.870030000000    -0.159875   
N85      N      0.676350000000     0.366100000000     0.660260000000    -0.164522   
N86      N      0.628100000000     0.412350000000     0.591870000000    -0.159598   
N87      N      0.868970000000     0.170940000000     0.674900000000    -0.164174   
N88      N      0.921560000000     0.110970000000     0.623390000000    -0.160556   
N89      N      0.904450000000     0.407800000000     0.941160000000    -0.165526   
N90      N      0.853030000000     0.358840000000     0.877830000000    -0.159723   
N91      N      0.901860000000     0.127890000000     0.938730000000    -0.166123   
N92      N      0.852990000000     0.179450000000     0.875710000000    -0.160316   
N93      N      0.619040000000     0.417560000000     0.926940000000    -0.166166   
N94      N      0.667800000000     0.362820000000     0.866640000000    -0.161127   
N95      N      0.874460000000     0.375630000000     0.686180000000    -0.166555   
N96      N      0.924210000000     0.426650000000     0.621910000000    -0.160092   
N97      N      0.667750000000     0.666760000000     0.169990000000    -0.164711   
N98      N      0.606420000000     0.613980000000     0.120360000000    -0.160826   
N99      N      0.617980000000     0.632490000000     0.433750000000    -0.165534   
N100     N      0.669970000000     0.680910000000     0.370030000000    -0.159902   
N101     N      0.676350000000     0.866100000000     0.160260000000    -0.164531   
N102     N      0.628100000000     0.912340000000     0.091870000000    -0.159566   
N103     N      0.868970000000     0.670940000000     0.174900000000    -0.16419    
N104     N      0.921560000000     0.610970000000     0.123390000000    -0.160552   
N105     N      0.904450000000     0.907810000000     0.441160000000    -0.165598   
N106     N      0.853030000000     0.858840000000     0.377820000000    -0.159794   
N107     N      0.901860000000     0.627890000000     0.438730000000    -0.166166   
N108     N      0.852990000000     0.679450000000     0.375710000000    -0.160314   
N109     N      0.619040000000     0.917560000000     0.426940000000    -0.166247   
N110     N      0.667800000000     0.862820000000     0.366650000000    -0.161092   
N111     N      0.874460000000     0.875630000000     0.186180000000    -0.166557   
N112     N      0.924210000000     0.926650000000     0.121910000000    -0.160052   
N113     N      0.667750000000     0.666760000000     0.669990000000    -0.164703   
N114     N      0.606420000000     0.613980000000     0.620360000000    -0.160829   
N115     N      0.617980000000     0.632490000000     0.933750000000    -0.165488   
N116     N      0.669970000000     0.680910000000     0.870030000000    -0.159874   
N117     N      0.676350000000     0.866100000000     0.660260000000    -0.164529   
N118     N      0.628100000000     0.912340000000     0.591870000000    -0.159546   
N119     N      0.868970000000     0.670940000000     0.674900000000    -0.164187   
N120     N      0.921560000000     0.610970000000     0.623390000000    -0.16055    
N121     N      0.904450000000     0.907810000000     0.941160000000    -0.165552   
N122     N      0.853030000000     0.858840000000     0.877830000000    -0.159713   
N123     N      0.901860000000     0.627890000000     0.938730000000    -0.166117   
N124     N      0.852990000000     0.679450000000     0.875710000000    -0.160315   
N125     N      0.619040000000     0.917560000000     0.926940000000    -0.166198   
N126     N      0.667800000000     0.862820000000     0.866640000000    -0.161128   
N127     N      0.874460000000     0.875630000000     0.686180000000    -0.166554   
N128     N      0.924210000000     0.926650000000     0.621910000000    -0.160084   
O1       O      0.424580000000     0.480370000000     0.067640000000    -0.366151   
O2       O      0.101230000000     0.057350000000     0.068990000000    -0.374337   
O3       O      0.061040000000     0.424660000000     0.057180000000    -0.360835   
O4       O      0.477230000000     0.107740000000     0.071150000000    -0.366432   
O5       O      0.112830000000     0.477840000000     0.054950000000    -0.360315   
O6       O      0.423340000000     0.056760000000     0.069000000000    -0.363744   
O7       O      0.051350000000     0.112280000000     0.067100000000    -0.361847   
O8       O      0.481580000000     0.432950000000     0.071580000000    -0.372797   
O9       O      0.416320000000     0.063060000000     0.477200000000    -0.369508   
O10      O      0.107630000000     0.480340000000     0.469700000000    -0.363424   
O11      O      0.469440000000     0.421760000000     0.479480000000    -0.365757   
O12      O      0.054270000000     0.118170000000     0.474240000000    -0.365897   
O13      O      0.109540000000     0.068970000000     0.476290000000    -0.367285   
O14      O      0.416560000000     0.473670000000     0.478820000000    -0.366612   
O15      O      0.466490000000     0.117580000000     0.478670000000    -0.368053   
O16      O      0.057210000000     0.426100000000     0.471430000000    -0.3626     
O17      O      0.513480000000     0.520820000000     0.997430000000    -0.588243   
O18      O      0.312410000000     0.367720000000     0.230150000000    -0.371046   
O19      O      0.227180000000     0.177040000000     0.217820000000    -0.372763   
O20      O      0.357470000000     0.231920000000     0.220490000000    -0.3711     
O21      O      0.178430000000     0.308210000000     0.210900000000    -0.377478   
O22      O      0.307540000000     0.177320000000     0.220860000000    -0.370685   
O23      O      0.230460000000     0.361010000000     0.214980000000    -0.375416   
O24      O      0.173820000000     0.228290000000     0.216010000000    -0.371884   
O25      O      0.358690000000     0.310060000000     0.222370000000    -0.371381   
O26      O      0.224880000000     0.360120000000     0.316340000000    -0.364517   
O27      O      0.300580000000     0.180540000000     0.319970000000    -0.358423   
O28      O      0.352510000000     0.305960000000     0.322340000000    -0.355923   
O29      O      0.173540000000     0.234060000000     0.314830000000    -0.357092   
O30      O      0.224590000000     0.180050000000     0.316300000000    -0.35615    
O31      O      0.301970000000     0.360370000000     0.320580000000    -0.353592   
O32      O      0.170420000000     0.309860000000     0.311000000000    -0.357751   
O33      O      0.354270000000     0.231840000000     0.319780000000    -0.356636   
O34      O      0.263900000000     0.270200000000     0.284120000000    -0.58652    
O35      O      0.424580000000     0.480370000000     0.567640000000    -0.366119   
O36      O      0.101230000000     0.057350000000     0.568990000000    -0.374385   
O37      O      0.061040000000     0.424660000000     0.557180000000    -0.360843   
O38      O      0.477230000000     0.107740000000     0.571140000000    -0.366484   
O39      O      0.112830000000     0.477840000000     0.554950000000    -0.360311   
O40      O      0.423340000000     0.056760000000     0.569000000000    -0.36376    
O41      O      0.051350000000     0.112280000000     0.567100000000    -0.361872   
O42      O      0.481580000000     0.432950000000     0.571580000000    -0.3728     
O43      O      0.416320000000     0.063060000000     0.977210000000    -0.369169   
O44      O      0.107630000000     0.480340000000     0.969700000000    -0.36308    
O45      O      0.469440000000     0.421760000000     0.979480000000    -0.365408   
O46      O      0.054270000000     0.118170000000     0.974240000000    -0.36555    
O47      O      0.109540000000     0.068970000000     0.976290000000    -0.366921   
O48      O      0.416560000000     0.473670000000     0.978820000000    -0.366259   
O49      O      0.466490000000     0.117580000000     0.978670000000    -0.367682   
O50      O      0.057210000000     0.426100000000     0.971430000000    -0.362243   
O51      O      0.513480000000     0.520820000000     0.497430000000    -0.589097   
O52      O      0.312410000000     0.367720000000     0.730150000000    -0.371059   
O53      O      0.227180000000     0.177040000000     0.717820000000    -0.372762   
O54      O      0.357470000000     0.231920000000     0.720490000000    -0.371094   
O55      O      0.178430000000     0.308210000000     0.710900000000    -0.377476   
O56      O      0.307540000000     0.177320000000     0.720860000000    -0.370683   
O57      O      0.230460000000     0.361010000000     0.714980000000    -0.37542    
O58      O      0.173820000000     0.228290000000     0.716010000000    -0.371884   
O59      O      0.358690000000     0.310060000000     0.722360000000    -0.371359   
O60      O      0.224880000000     0.360120000000     0.816340000000    -0.364533   
O61      O      0.300580000000     0.180540000000     0.819970000000    -0.358421   
O62      O      0.352510000000     0.305960000000     0.822340000000    -0.355955   
O63      O      0.173540000000     0.234060000000     0.814830000000    -0.35714    
O64      O      0.224590000000     0.180050000000     0.816300000000    -0.356198   
O65      O      0.301970000000     0.360370000000     0.820580000000    -0.353626   
O66      O      0.170420000000     0.309860000000     0.811000000000    -0.357766   
O67      O      0.354270000000     0.231840000000     0.819780000000    -0.356631   
O68      O      0.263900000000     0.270200000000     0.784120000000    -0.586512   
O69      O      0.424580000000     0.980370000000     0.067640000000    -0.366052   
O70      O      0.101230000000     0.557350000000     0.068990000000    -0.374388   
O71      O      0.061040000000     0.924650000000     0.057180000000    -0.360745   
O72      O      0.477230000000     0.607740000000     0.071150000000    -0.366396   
O73      O      0.112830000000     0.977840000000     0.054950000000    -0.360192   
O74      O      0.423340000000     0.556760000000     0.069000000000    -0.363719   
O75      O      0.051350000000     0.612280000000     0.067100000000    -0.361783   
O76      O      0.481580000000     0.932950000000     0.071580000000    -0.372797   
O77      O      0.416320000000     0.563060000000     0.477200000000    -0.369495   
O78      O      0.107630000000     0.980330000000     0.469700000000    -0.363412   
O79      O      0.469440000000     0.921760000000     0.479480000000    -0.365764   
O80      O      0.054270000000     0.618170000000     0.474240000000    -0.365855   
O81      O      0.109540000000     0.568970000000     0.476290000000    -0.36719    
O82      O      0.416560000000     0.973670000000     0.478820000000    -0.366525   
O83      O      0.466490000000     0.617580000000     0.478670000000    -0.368005   
O84      O      0.057210000000     0.926110000000     0.471430000000    -0.362709   
O85      O      0.513480000000     0.020820000000     0.997430000000    -0.588249   
O86      O      0.312410000000     0.867720000000     0.230150000000    -0.371041   
O87      O      0.227180000000     0.677040000000     0.217820000000    -0.37276    
O88      O      0.357470000000     0.731920000000     0.220490000000    -0.371021   
O89      O      0.178430000000     0.808210000000     0.210900000000    -0.377478   
O90      O      0.307540000000     0.677320000000     0.220860000000    -0.370699   
O91      O      0.230460000000     0.861010000000     0.214980000000    -0.375413   
O92      O      0.173820000000     0.728290000000     0.216010000000    -0.371883   
O93      O      0.358690000000     0.810060000000     0.222370000000    -0.371382   
O94      O      0.224880000000     0.860120000000     0.316340000000    -0.364511   
O95      O      0.300580000000     0.680540000000     0.319970000000    -0.35842    
O96      O      0.352510000000     0.805960000000     0.322340000000    -0.355921   
O97      O      0.173540000000     0.734060000000     0.314830000000    -0.357092   
O98      O      0.224590000000     0.680050000000     0.316300000000    -0.356148   
O99      O      0.301970000000     0.860370000000     0.320580000000    -0.353585   
O100     O      0.170420000000     0.809860000000     0.311000000000    -0.35775    
O101     O      0.354270000000     0.731840000000     0.319780000000    -0.356636   
O102     O      0.263900000000     0.770200000000     0.284120000000    -0.586521   
O103     O      0.424580000000     0.980370000000     0.567640000000    -0.36602    
O104     O      0.101230000000     0.557350000000     0.568990000000    -0.374436   
O105     O      0.061040000000     0.924650000000     0.557180000000    -0.360753   
O106     O      0.477230000000     0.607740000000     0.571140000000    -0.366448   
O107     O      0.112830000000     0.977840000000     0.554950000000    -0.360189   
O108     O      0.423340000000     0.556760000000     0.569000000000    -0.363735   
O109     O      0.051350000000     0.612280000000     0.567100000000    -0.361808   
O110     O      0.481580000000     0.932950000000     0.571580000000    -0.372799   
O111     O      0.416320000000     0.563060000000     0.977210000000    -0.369156   
O112     O      0.107630000000     0.980330000000     0.969700000000    -0.363069   
O113     O      0.469440000000     0.921760000000     0.979480000000    -0.365415   
O114     O      0.054270000000     0.618170000000     0.974240000000    -0.365508   
O115     O      0.109540000000     0.568970000000     0.976290000000    -0.366826   
O116     O      0.416560000000     0.973670000000     0.978820000000    -0.366172   
O117     O      0.466490000000     0.617580000000     0.978670000000    -0.367634   
O118     O      0.057210000000     0.926110000000     0.971430000000    -0.362352   
O119     O      0.513480000000     0.020820000000     0.497430000000    -0.589103   
O120     O      0.312410000000     0.867720000000     0.730150000000    -0.371054   
O121     O      0.227180000000     0.677040000000     0.717820000000    -0.372759   
O122     O      0.357470000000     0.731920000000     0.720490000000    -0.371015   
O123     O      0.178430000000     0.808210000000     0.710900000000    -0.377476   
O124     O      0.307540000000     0.677320000000     0.720860000000    -0.370697   
O125     O      0.230460000000     0.861010000000     0.714980000000    -0.375417   
O126     O      0.173820000000     0.728290000000     0.716010000000    -0.371884   
O127     O      0.358690000000     0.810060000000     0.722360000000    -0.371361   
O128     O      0.224880000000     0.860120000000     0.816340000000    -0.364526   
O129     O      0.300580000000     0.680540000000     0.819970000000    -0.358418   
O130     O      0.352510000000     0.805960000000     0.822340000000    -0.355953   
O131     O      0.173540000000     0.734060000000     0.814830000000    -0.35714    
O132     O      0.224590000000     0.680050000000     0.816300000000    -0.356195   
O133     O      0.301970000000     0.860370000000     0.820580000000    -0.353619   
O134     O      0.170420000000     0.809860000000     0.811000000000    -0.357765   
O135     O      0.354270000000     0.731840000000     0.819780000000    -0.356631   
O136     O      0.263900000000     0.770200000000     0.784120000000    -0.586513   
O137     O      0.924580000000     0.480370000000     0.067640000000    -0.36615    
O138     O      0.601230000000     0.057350000000     0.068990000000    -0.374331   
O139     O      0.561040000000     0.424660000000     0.057180000000    -0.360826   
O140     O      0.977230000000     0.107740000000     0.071150000000    -0.366338   
O141     O      0.612830000000     0.477840000000     0.054950000000    -0.360312   
O142     O      0.923340000000     0.056760000000     0.069000000000    -0.363742   
O143     O      0.551350000000     0.112280000000     0.067100000000    -0.361828   
O144     O      0.981580000000     0.432950000000     0.071580000000    -0.372703   
O145     O      0.916320000000     0.063060000000     0.477200000000    -0.369504   
O146     O      0.607630000000     0.480340000000     0.469700000000    -0.363385   
O147     O      0.969440000000     0.421760000000     0.479480000000    -0.365676   
O148     O      0.554270000000     0.118170000000     0.474240000000    -0.36589    
O149     O      0.609540000000     0.068970000000     0.476290000000    -0.367285   
O150     O      0.916560000000     0.473670000000     0.478820000000    -0.36661    
O151     O      0.966490000000     0.117580000000     0.478670000000    -0.367964   
O152     O      0.557200000000     0.426100000000     0.471430000000    -0.362524   
O153     O      0.013480000000     0.520820000000     0.997430000000    -0.58828    
O154     O      0.812410000000     0.367720000000     0.230150000000    -0.371048   
O155     O      0.727180000000     0.177040000000     0.217820000000    -0.372762   
O156     O      0.857470000000     0.231920000000     0.220490000000    -0.371087   
O157     O      0.678430000000     0.308210000000     0.210900000000    -0.377475   
O158     O      0.807540000000     0.177320000000     0.220860000000    -0.37076    
O159     O      0.730460000000     0.361010000000     0.214980000000    -0.37542    
O160     O      0.673820000000     0.228290000000     0.216010000000    -0.371879   
O161     O      0.858690000000     0.310060000000     0.222370000000    -0.37138    
O162     O      0.724890000000     0.360120000000     0.316340000000    -0.364445   
O163     O      0.800580000000     0.180540000000     0.319970000000    -0.358423   
O164     O      0.852510000000     0.305960000000     0.322340000000    -0.355917   
O165     O      0.673540000000     0.234060000000     0.314830000000    -0.357087   
O166     O      0.724590000000     0.180050000000     0.316300000000    -0.356151   
O167     O      0.801970000000     0.360370000000     0.320580000000    -0.353584   
O168     O      0.670420000000     0.309860000000     0.311000000000    -0.357708   
O169     O      0.854270000000     0.231840000000     0.319780000000    -0.356631   
O170     O      0.763900000000     0.270200000000     0.284120000000    -0.586523   
O171     O      0.924580000000     0.480370000000     0.567640000000    -0.366118   
O172     O      0.601230000000     0.057350000000     0.568990000000    -0.374379   
O173     O      0.561040000000     0.424660000000     0.557180000000    -0.360834   
O174     O      0.977230000000     0.107740000000     0.571140000000    -0.36639    
O175     O      0.612830000000     0.477840000000     0.554950000000    -0.360308   
O176     O      0.923340000000     0.056760000000     0.569000000000    -0.363758   
O177     O      0.551350000000     0.112280000000     0.567100000000    -0.361854   
O178     O      0.981580000000     0.432950000000     0.571580000000    -0.372705   
O179     O      0.916320000000     0.063060000000     0.977210000000    -0.369165   
O180     O      0.607630000000     0.480340000000     0.969700000000    -0.363041   
O181     O      0.969440000000     0.421760000000     0.979480000000    -0.365326   
O182     O      0.554270000000     0.118170000000     0.974240000000    -0.365543   
O183     O      0.609540000000     0.068970000000     0.976290000000    -0.366921   
O184     O      0.916560000000     0.473670000000     0.978820000000    -0.366257   
O185     O      0.966490000000     0.117580000000     0.978670000000    -0.367593   
O186     O      0.557200000000     0.426100000000     0.971430000000    -0.362167   
O187     O      0.013480000000     0.520820000000     0.497430000000    -0.589134   
O188     O      0.812410000000     0.367720000000     0.730150000000    -0.371061   
O189     O      0.727180000000     0.177040000000     0.717820000000    -0.37276    
O190     O      0.857470000000     0.231920000000     0.720490000000    -0.37108    
O191     O      0.678430000000     0.308210000000     0.710900000000    -0.377473   
O192     O      0.807540000000     0.177320000000     0.720860000000    -0.370758   
O193     O      0.730460000000     0.361010000000     0.714980000000    -0.375424   
O194     O      0.673820000000     0.228290000000     0.716010000000    -0.37188    
O195     O      0.858690000000     0.310060000000     0.722360000000    -0.371359   
O196     O      0.724890000000     0.360120000000     0.816340000000    -0.36446    
O197     O      0.800580000000     0.180540000000     0.819970000000    -0.358421   
O198     O      0.852510000000     0.305960000000     0.822340000000    -0.355949   
O199     O      0.673540000000     0.234060000000     0.814830000000    -0.357136   
O200     O      0.724590000000     0.180050000000     0.816300000000    -0.356198   
O201     O      0.801970000000     0.360370000000     0.820580000000    -0.353618   
O202     O      0.670420000000     0.309860000000     0.811000000000    -0.357723   
O203     O      0.854270000000     0.231840000000     0.819780000000    -0.356626   
O204     O      0.763900000000     0.270200000000     0.784120000000    -0.586514   
O205     O      0.924580000000     0.980370000000     0.067640000000    -0.366051   
O206     O      0.601230000000     0.557350000000     0.068990000000    -0.374383   
O207     O      0.561040000000     0.924650000000     0.057180000000    -0.360736   
O208     O      0.977230000000     0.607740000000     0.071150000000    -0.366303   
O209     O      0.612830000000     0.977840000000     0.054950000000    -0.360189   
O210     O      0.923340000000     0.556760000000     0.069000000000    -0.363717   
O211     O      0.551350000000     0.612280000000     0.067100000000    -0.361764   
O212     O      0.981580000000     0.932950000000     0.071580000000    -0.372703   
O213     O      0.916320000000     0.563060000000     0.477200000000    -0.369491   
O214     O      0.607630000000     0.980330000000     0.469700000000    -0.363373   
O215     O      0.969440000000     0.921760000000     0.479480000000    -0.365683   
O216     O      0.554270000000     0.618170000000     0.474240000000    -0.365848   
O217     O      0.609540000000     0.568970000000     0.476290000000    -0.36719    
O218     O      0.916560000000     0.973670000000     0.478820000000    -0.366523   
O219     O      0.966490000000     0.617580000000     0.478670000000    -0.367916   
O220     O      0.557200000000     0.926110000000     0.471430000000    -0.362632   
O221     O      0.013480000000     0.020820000000     0.997430000000    -0.588285   
O222     O      0.812410000000     0.867720000000     0.230150000000    -0.371043   
O223     O      0.727180000000     0.677040000000     0.217820000000    -0.372758   
O224     O      0.857470000000     0.731920000000     0.220490000000    -0.371008   
O225     O      0.678430000000     0.808210000000     0.210900000000    -0.377475   
O226     O      0.807540000000     0.677320000000     0.220860000000    -0.370774   
O227     O      0.730460000000     0.861010000000     0.214980000000    -0.375417   
O228     O      0.673820000000     0.728290000000     0.216010000000    -0.371879   
O229     O      0.858690000000     0.810060000000     0.222370000000    -0.371381   
O230     O      0.724890000000     0.860120000000     0.316340000000    -0.364438   
O231     O      0.800580000000     0.680540000000     0.319970000000    -0.35842    
O232     O      0.852510000000     0.805960000000     0.322340000000    -0.355915   
O233     O      0.673540000000     0.734060000000     0.314830000000    -0.357087   
O234     O      0.724590000000     0.680050000000     0.316300000000    -0.356148   
O235     O      0.801970000000     0.860370000000     0.320580000000    -0.353577   
O236     O      0.670420000000     0.809860000000     0.311000000000    -0.357708   
O237     O      0.854270000000     0.731840000000     0.319780000000    -0.356631   
O238     O      0.763900000000     0.770200000000     0.284120000000    -0.586524   
O239     O      0.924580000000     0.980370000000     0.567640000000    -0.366019   
O240     O      0.601230000000     0.557350000000     0.568990000000    -0.374431   
O241     O      0.561040000000     0.924650000000     0.557180000000    -0.360744   
O242     O      0.977230000000     0.607740000000     0.571140000000    -0.366354   
O243     O      0.612830000000     0.977840000000     0.554950000000    -0.360186   
O244     O      0.923340000000     0.556760000000     0.569000000000    -0.363733   
O245     O      0.551350000000     0.612280000000     0.567100000000    -0.36179    
O246     O      0.981580000000     0.932950000000     0.571580000000    -0.372705   
O247     O      0.916320000000     0.563060000000     0.977210000000    -0.369152   
O248     O      0.607630000000     0.980330000000     0.969700000000    -0.36303    
O249     O      0.969440000000     0.921760000000     0.979480000000    -0.365334   
O250     O      0.554270000000     0.618170000000     0.974240000000    -0.365502   
O251     O      0.609540000000     0.568970000000     0.976290000000    -0.366825   
O252     O      0.916560000000     0.973670000000     0.978820000000    -0.36617    
O253     O      0.966490000000     0.617580000000     0.978670000000    -0.367545   
O254     O      0.557200000000     0.926110000000     0.971430000000    -0.362276   
O255     O      0.013480000000     0.020820000000     0.497430000000    -0.589139   
O256     O      0.812410000000     0.867720000000     0.730150000000    -0.371055   
O257     O      0.727180000000     0.677040000000     0.717820000000    -0.372757   
O258     O      0.857470000000     0.731920000000     0.720490000000    -0.371001   
O259     O      0.678430000000     0.808210000000     0.710900000000    -0.377473   
O260     O      0.807540000000     0.677320000000     0.720860000000    -0.370772   
O261     O      0.730460000000     0.861010000000     0.714980000000    -0.37542    
O262     O      0.673820000000     0.728290000000     0.716010000000    -0.37188    
O263     O      0.858690000000     0.810060000000     0.722360000000    -0.37136    
O264     O      0.724890000000     0.860120000000     0.816340000000    -0.364453   
O265     O      0.800580000000     0.680540000000     0.819970000000    -0.358418   
O266     O      0.852510000000     0.805960000000     0.822340000000    -0.355947   
O267     O      0.673540000000     0.734060000000     0.814830000000    -0.357136   
O268     O      0.724590000000     0.680050000000     0.816300000000    -0.356195   
O269     O      0.801970000000     0.860370000000     0.820580000000    -0.353611   
O270     O      0.670420000000     0.809860000000     0.811000000000    -0.357723   
O271     O      0.854270000000     0.731840000000     0.819780000000    -0.356626   
O272     O      0.763900000000     0.770200000000     0.784120000000    -0.586515   
S1       S      0.221540000000     0.091790000000     0.186390000000    -0.0130819  
S2       S      0.073250000000     0.208710000000     0.459290000000    -0.0242241  
S3       S      0.254740000000     0.404740000000     0.134090000000    -0.0191541  
S4       S      0.443510000000     0.224530000000     0.192570000000    -0.0122765  
S5       S      0.442590000000     0.331230000000     0.474040000000    -0.0266912  
S6       S      0.325910000000     0.085820000000     0.468350000000    -0.0253044  
S7       S      0.196270000000     0.458770000000     0.456790000000    -0.0244308  
S8       S      0.390740000000     0.323910000000     0.114860000000    -0.0211386  
S9       S      0.221540000000     0.091790000000     0.686390000000    -0.0130807  
S10      S      0.073250000000     0.208710000000     0.959290000000    -0.023989   
S11      S      0.254740000000     0.404740000000     0.634090000000    -0.0190684  
S12      S      0.443510000000     0.224530000000     0.692570000000    -0.0122819  
S13      S      0.442590000000     0.331230000000     0.974040000000    -0.0264086  
S14      S      0.325910000000     0.085820000000     0.968360000000    -0.0250389  
S15      S      0.196270000000     0.458770000000     0.956790000000    -0.0241786  
S16      S      0.390740000000     0.323910000000     0.614860000000    -0.0209687  
S17      S      0.221540000000     0.591790000000     0.186390000000    -0.0130362  
S18      S      0.073250000000     0.708710000000     0.459290000000    -0.0242287  
S19      S      0.254740000000     0.904730000000     0.134090000000    -0.0191451  
S20      S      0.443510000000     0.724530000000     0.192570000000    -0.0122787  
S21      S      0.442590000000     0.831230000000     0.474040000000    -0.0266885  
S22      S      0.325910000000     0.585820000000     0.468350000000    -0.0252785  
S23      S      0.196270000000     0.958770000000     0.456790000000    -0.0242677  
S24      S      0.390740000000     0.823910000000     0.114860000000    -0.0211412  
S25      S      0.221540000000     0.591790000000     0.686390000000    -0.013035   
S26      S      0.073250000000     0.708710000000     0.959290000000    -0.0239936  
S27      S      0.254740000000     0.904730000000     0.634090000000    -0.0190594  
S28      S      0.443510000000     0.724530000000     0.692570000000    -0.0122842  
S29      S      0.442590000000     0.831230000000     0.974040000000    -0.0264059  
S30      S      0.325910000000     0.585820000000     0.968360000000    -0.025013   
S31      S      0.196270000000     0.958770000000     0.956790000000    -0.0240155  
S32      S      0.390740000000     0.823910000000     0.614860000000    -0.0209713  
S33      S      0.721540000000     0.091790000000     0.186390000000    -0.0130778  
S34      S      0.573250000000     0.208710000000     0.459290000000    -0.0241943  
S35      S      0.754740000000     0.404740000000     0.134090000000    -0.0191567  
S36      S      0.943510000000     0.224530000000     0.192570000000    -0.012234   
S37      S      0.942590000000     0.331230000000     0.474040000000    -0.0266657  
S38      S      0.825910000000     0.085820000000     0.468350000000    -0.0253033  
S39      S      0.696280000000     0.458770000000     0.456790000000    -0.0244453  
S40      S      0.890740000000     0.323910000000     0.114860000000    -0.0211395  
S41      S      0.721540000000     0.091790000000     0.686390000000    -0.0130766  
S42      S      0.573250000000     0.208710000000     0.959290000000    -0.0239592  
S43      S      0.754740000000     0.404740000000     0.634090000000    -0.019071   
S44      S      0.943510000000     0.224530000000     0.692570000000    -0.0122394  
S45      S      0.942590000000     0.331230000000     0.974040000000    -0.0263831  
S46      S      0.825910000000     0.085820000000     0.968360000000    -0.0250378  
S47      S      0.696280000000     0.458770000000     0.956790000000    -0.0241931  
S48      S      0.890740000000     0.323910000000     0.614860000000    -0.0209695  
S49      S      0.721540000000     0.591790000000     0.186390000000    -0.0130322  
S50      S      0.573250000000     0.708710000000     0.459290000000    -0.0241989  
S51      S      0.754740000000     0.904730000000     0.134090000000    -0.0191477  
S52      S      0.943510000000     0.724530000000     0.192570000000    -0.0122362  
S53      S      0.942590000000     0.831230000000     0.474040000000    -0.026663   
S54      S      0.825910000000     0.585820000000     0.468350000000    -0.0252774  
S55      S      0.696280000000     0.958770000000     0.456790000000    -0.0242821  
S56      S      0.890740000000     0.823910000000     0.114860000000    -0.0211421  
S57      S      0.721540000000     0.591790000000     0.686390000000    -0.013031   
S58      S      0.573250000000     0.708710000000     0.959290000000    -0.0239638  
S59      S      0.754740000000     0.904730000000     0.634090000000    -0.019062   
S60      S      0.943510000000     0.724530000000     0.692570000000    -0.0122417  
S61      S      0.942590000000     0.831230000000     0.974040000000    -0.0263805  
S62      S      0.825910000000     0.585820000000     0.968360000000    -0.0250119  
S63      S      0.696280000000     0.958770000000     0.956790000000    -0.02403    
S64      S      0.890740000000     0.823910000000     0.614860000000    -0.0209721  


