data_structure

_audit_creation_method RASPA-1.0
_audit_creation_date 2023-5-19
_audit_author_name 'Poobodin Mano'

_cell_length_a    30.7002
_cell_length_b    31.0228
_cell_length_c    28.5705
_cell_angle_alpha 90
_cell_angle_beta  90
_cell_angle_gamma 90
_cell_volume      27210.7

_symmetry_cell_setting          triclinic
_symmetry_space_group_name_Hall 'P 1'
_symmetry_space_group_name_H-M  'P 1'
_symmetry_Int_Tables_number     1

_symmetry_equiv_pos_as_xyz 'x,y,z'

loop_
_atom_site_label
_atom_site_type_symbol
_atom_site_fract_x
_atom_site_fract_y
_atom_site_fract_z
_atom_site_charge
C1       C      0.423370000000     0.411670000000     0.487140000000     0.405163   
C2       C      0.086480000000     0.072710000000     0.483580000000     0.40524    
C3       C      0.428700000000     0.067140000000     0.472260000000     0.402507   
C4       C      0.084970000000     0.411170000000     0.487500000000     0.402805   
C5       C      0.079730000000     0.418910000000     0.105950000000     0.399419   
C6       C      0.426420000000     0.073490000000     0.096870000000     0.39597    
C7       C      0.427790000000     0.420990000000     0.106650000000     0.398935   
C8       C      0.080030000000     0.070150000000     0.101450000000     0.400467   
C9       C      0.333960000000     0.324450000000     0.235440000000     0.395298   
C10      C      0.178150000000     0.170270000000     0.223260000000     0.3992     
C11      C      0.327750000000     0.172460000000     0.219290000000     0.400644   
C12      C      0.178670000000     0.319010000000     0.226750000000     0.404536   
C13      C      0.176640000000     0.318340000000     0.354530000000     0.402276   
C14      C      0.336510000000     0.160660000000     0.340110000000     0.404731   
C15      C      0.329880000000     0.318590000000     0.355540000000     0.401802   
C16      C      0.178420000000     0.166240000000     0.351290000000     0.405344   
C17      C      0.141990000000     0.080070000000     0.150520000000     0.0413431  
C18      C      0.091400000000     0.136450000000     0.141440000000     0.0612858  
C19      C      0.167010000000     0.106080000000     0.179890000000     0.0323808  
C20      C      0.117280000000     0.163530000000     0.169320000000    -0.00400516 
C21      C      0.104980000000     0.209770000000     0.169880000000     0.307466   
C22      C      0.115410000000     0.155110000000     0.398050000000     0.0410199  
C23      C      0.176070000000     0.109400000000     0.407170000000     0.0606853  
C24      C      0.093140000000     0.132000000000     0.432210000000     0.0328573  
C25      C      0.154550000000     0.086900000000     0.443100000000    -0.00464088 
C26      C      0.181190000000     0.056080000000     0.470840000000     0.308358   
C27      C      0.085810000000     0.361920000000     0.161500000000     0.0393597  
C28      C      0.147990000000     0.401850000000     0.140380000000     0.062629   
C29      C      0.111290000000     0.336370000000     0.190950000000     0.0386411  
C30      C      0.174400000000     0.374110000000     0.166940000000    -0.0027395  
C31      C      0.221930000000     0.375740000000     0.157540000000     0.312781   
C32      C      0.365940000000     0.082210000000     0.148060000000     0.0379206  
C33      C      0.411500000000     0.141510000000     0.132600000000     0.0610122  
C34      C      0.340640000000     0.107670000000     0.177670000000     0.0347047  
C35      C      0.384860000000     0.168060000000     0.160630000000    -0.00511274 
C36      C      0.391100000000     0.215320000000     0.156280000000     0.312003   
C37      C      0.339080000000     0.380590000000     0.403560000000     0.0401477  
C38      C      0.387470000000     0.322130000000     0.411230000000     0.0592224  
C39      C      0.362250000000     0.403260000000     0.437480000000     0.0345432  
C40      C      0.410060000000     0.344000000000     0.446860000000    -0.00348032 
C41      C      0.442690000000     0.318590000000     0.473680000000     0.308398   
C42      C      0.365860000000     0.076850000000     0.424300000000     0.0397146  
C43      C      0.426510000000     0.122470000000     0.414690000000     0.0601055  
C44      C      0.343410000000     0.100030000000     0.390070000000     0.0322347  
C45      C      0.404870000000     0.144970000000     0.378930000000    -0.00436634 
C46      C      0.431340000000     0.175810000000     0.350950000000     0.307308   
C47      C      0.112350000000     0.330090000000     0.399600000000     0.0418767  
C48      C      0.175250000000     0.371290000000     0.414600000000     0.0610897  
C49      C      0.089950000000     0.352960000000     0.434120000000     0.0318863  
C50      C      0.153800000000     0.392800000000     0.451200000000    -0.00233979 
C51      C      0.181650000000     0.417980000000     0.484010000000     0.309275   
C52      C      0.399050000000     0.338140000000     0.192410000000     0.0325629  
C53      C      0.341210000000     0.387690000000     0.189160000000     0.0532923  
C54      C      0.421810000000     0.362390000000     0.159390000000     0.0334538  
C55      C      0.362590000000     0.411030000000     0.153930000000    -0.00429426 
C56      C      0.336340000000     0.445180000000     0.130820000000     0.310817   
C57      C      0.423370000000     0.411670000000     0.987140000000     0.405259   
C58      C      0.086480000000     0.072710000000     0.983580000000     0.405233   
C59      C      0.428700000000     0.067140000000     0.972250000000     0.402375   
C60      C      0.084970000000     0.411170000000     0.987500000000     0.402903   
C61      C      0.079730000000     0.418910000000     0.605950000000     0.399377   
C62      C      0.426420000000     0.073490000000     0.596870000000     0.395955   
C63      C      0.427790000000     0.420990000000     0.606650000000     0.398906   
C64      C      0.080030000000     0.070150000000     0.601450000000     0.400523   
C65      C      0.333960000000     0.324450000000     0.735440000000     0.395296   
C66      C      0.178150000000     0.170270000000     0.723260000000     0.399201   
C67      C      0.327750000000     0.172460000000     0.719290000000     0.400681   
C68      C      0.178670000000     0.319010000000     0.726750000000     0.404537   
C69      C      0.176640000000     0.318340000000     0.854530000000     0.40228    
C70      C      0.336510000000     0.160660000000     0.840110000000     0.404731   
C71      C      0.329880000000     0.318590000000     0.855540000000     0.40175    
C72      C      0.178420000000     0.166240000000     0.851290000000     0.405345   
C73      C      0.141990000000     0.080070000000     0.650520000000     0.0413375  
C74      C      0.091400000000     0.136450000000     0.641440000000     0.0612946  
C75      C      0.167010000000     0.106080000000     0.679890000000     0.0323853  
C76      C      0.117280000000     0.163530000000     0.669320000000    -0.00401436 
C77      C      0.104980000000     0.209770000000     0.669880000000     0.307497   
C78      C      0.115410000000     0.155110000000     0.898060000000     0.0410162  
C79      C      0.176070000000     0.109400000000     0.907180000000     0.0606792  
C80      C      0.093140000000     0.132000000000     0.932210000000     0.0328577  
C81      C      0.154550000000     0.086900000000     0.943100000000    -0.00466046 
C82      C      0.181190000000     0.056080000000     0.970840000000     0.308451   
C83      C      0.085810000000     0.361920000000     0.661500000000     0.0393708  
C84      C      0.147990000000     0.401850000000     0.640380000000     0.0626208  
C85      C      0.111290000000     0.336370000000     0.690950000000     0.0386408  
C86      C      0.174400000000     0.374110000000     0.666940000000    -0.00273347 
C87      C      0.221930000000     0.375740000000     0.657540000000     0.31278    
C88      C      0.365940000000     0.082210000000     0.648060000000     0.0379175  
C89      C      0.411500000000     0.141510000000     0.632600000000     0.061014   
C90      C      0.340640000000     0.107670000000     0.677670000000     0.0347133  
C91      C      0.384860000000     0.168060000000     0.660630000000    -0.00510867 
C92      C      0.391100000000     0.215320000000     0.656280000000     0.312004   
C93      C      0.339080000000     0.380590000000     0.903550000000     0.0401561  
C94      C      0.387470000000     0.322130000000     0.911230000000     0.0592442  
C95      C      0.362250000000     0.403260000000     0.937480000000     0.0345606  
C96      C      0.410060000000     0.344000000000     0.946860000000    -0.00349661 
C97      C      0.442690000000     0.318590000000     0.973680000000     0.308492   
C98      C      0.365860000000     0.076850000000     0.924300000000     0.0397212  
C99      C      0.426510000000     0.122470000000     0.914690000000     0.0601097  
C100     C      0.343410000000     0.100030000000     0.890070000000     0.0322364  
C101     C      0.404870000000     0.144970000000     0.878930000000    -0.00436381 
C102     C      0.431340000000     0.175810000000     0.850950000000     0.307306   
C103     C      0.112350000000     0.330090000000     0.899600000000     0.0418993  
C104     C      0.175250000000     0.371290000000     0.914590000000     0.0611362  
C105     C      0.089950000000     0.352960000000     0.934110000000     0.0318648  
C106     C      0.153800000000     0.392800000000     0.951200000000    -0.00237794 
C107     C      0.181650000000     0.417980000000     0.984010000000     0.30944    
C108     C      0.399050000000     0.338140000000     0.692410000000     0.0325612  
C109     C      0.341210000000     0.387690000000     0.689150000000     0.0532657  
C110     C      0.421810000000     0.362390000000     0.659390000000     0.0334527  
C111     C      0.362590000000     0.411030000000     0.653930000000    -0.00426395 
C112     C      0.336340000000     0.445180000000     0.630830000000     0.310651   
C113     C      0.423370000000     0.911670000000     0.487140000000     0.405161   
C114     C      0.086480000000     0.572710000000     0.483580000000     0.405244   
C115     C      0.428700000000     0.567140000000     0.472260000000     0.40251    
C116     C      0.084970000000     0.911170000000     0.487500000000     0.402939   
C117     C      0.079730000000     0.918900000000     0.105950000000     0.399395   
C118     C      0.426420000000     0.573490000000     0.096870000000     0.395976   
C119     C      0.427790000000     0.920990000000     0.106650000000     0.398932   
C120     C      0.080030000000     0.570150000000     0.101450000000     0.400471   
C121     C      0.333960000000     0.824450000000     0.235440000000     0.395318   
C122     C      0.178150000000     0.670270000000     0.223260000000     0.399181   
C123     C      0.327750000000     0.672460000000     0.219290000000     0.400626   
C124     C      0.178670000000     0.819010000000     0.226750000000     0.404552   
C125     C      0.176640000000     0.818340000000     0.354530000000     0.402293   
C126     C      0.336510000000     0.660660000000     0.340110000000     0.404524   
C127     C      0.329880000000     0.818590000000     0.355540000000     0.401818   
C128     C      0.178420000000     0.666240000000     0.351290000000     0.405325   
C129     C      0.141990000000     0.580070000000     0.150520000000     0.0413592  
C130     C      0.091400000000     0.636450000000     0.141440000000     0.0612849  
C131     C      0.167010000000     0.606080000000     0.179890000000     0.0323672  
C132     C      0.117280000000     0.663530000000     0.169320000000    -0.00400737 
C133     C      0.104980000000     0.709770000000     0.169880000000     0.307467   
C134     C      0.115410000000     0.655110000000     0.398050000000     0.0410184  
C135     C      0.176070000000     0.609400000000     0.407170000000     0.0606822  
C136     C      0.093140000000     0.632000000000     0.432210000000     0.0328552  
C137     C      0.154550000000     0.586900000000     0.443100000000    -0.00464603 
C138     C      0.181190000000     0.556080000000     0.470840000000     0.308356   
C139     C      0.085810000000     0.861930000000     0.161500000000     0.0394101  
C140     C      0.147990000000     0.901850000000     0.140380000000     0.0626389  
C141     C      0.111290000000     0.836370000000     0.190950000000     0.038618   
C142     C      0.174400000000     0.874110000000     0.166940000000    -0.00275071 
C143     C      0.221930000000     0.875740000000     0.157540000000     0.312785   
C144     C      0.365940000000     0.582210000000     0.148060000000     0.0379185  
C145     C      0.411500000000     0.641510000000     0.132600000000     0.0610234  
C146     C      0.340640000000     0.607670000000     0.177670000000     0.0346977  
C147     C      0.384860000000     0.668060000000     0.160630000000    -0.00512078 
C148     C      0.391100000000     0.715320000000     0.156280000000     0.312005   
C149     C      0.339080000000     0.880600000000     0.403560000000     0.0400726  
C150     C      0.387470000000     0.822130000000     0.411230000000     0.059218   
C151     C      0.362250000000     0.903260000000     0.437480000000     0.0345743  
C152     C      0.410060000000     0.844000000000     0.446860000000    -0.00347639 
C153     C      0.442690000000     0.818590000000     0.473680000000     0.308398   
C154     C      0.365860000000     0.576850000000     0.424300000000     0.0397002  
C155     C      0.426510000000     0.622470000000     0.414690000000     0.0601164  
C156     C      0.343410000000     0.600030000000     0.390070000000     0.0322557  
C157     C      0.404870000000     0.644970000000     0.378930000000    -0.00440214 
C158     C      0.431340000000     0.675810000000     0.350950000000     0.307316   
C159     C      0.112350000000     0.830090000000     0.399600000000     0.0418736  
C160     C      0.175250000000     0.871290000000     0.414600000000     0.0610813  
C161     C      0.089950000000     0.852960000000     0.434120000000     0.0318879  
C162     C      0.153800000000     0.892800000000     0.451200000000    -0.00233106 
C163     C      0.181650000000     0.917980000000     0.484010000000     0.309242   
C164     C      0.399050000000     0.838140000000     0.192410000000     0.0325625  
C165     C      0.341210000000     0.887690000000     0.189160000000     0.0532922  
C166     C      0.421810000000     0.862390000000     0.159390000000     0.0334512  
C167     C      0.362590000000     0.911030000000     0.153930000000    -0.00430078 
C168     C      0.336340000000     0.945180000000     0.130820000000     0.310812   
C169     C      0.423370000000     0.911670000000     0.987140000000     0.405257   
C170     C      0.086480000000     0.572710000000     0.983580000000     0.405237   
C171     C      0.428700000000     0.567140000000     0.972250000000     0.402377   
C172     C      0.084970000000     0.911170000000     0.987500000000     0.403037   
C173     C      0.079730000000     0.918900000000     0.605950000000     0.399353   
C174     C      0.426420000000     0.573490000000     0.596870000000     0.39596    
C175     C      0.427790000000     0.920990000000     0.606650000000     0.398903   
C176     C      0.080030000000     0.570150000000     0.601450000000     0.400527   
C177     C      0.333960000000     0.824450000000     0.735440000000     0.395317   
C178     C      0.178150000000     0.670270000000     0.723260000000     0.399182   
C179     C      0.327750000000     0.672460000000     0.719290000000     0.400663   
C180     C      0.178670000000     0.819010000000     0.726750000000     0.404553   
C181     C      0.176640000000     0.818340000000     0.854530000000     0.402297   
C182     C      0.336510000000     0.660660000000     0.840110000000     0.404524   
C183     C      0.329880000000     0.818590000000     0.855540000000     0.401765   
C184     C      0.178420000000     0.666240000000     0.851290000000     0.405326   
C185     C      0.141990000000     0.580070000000     0.650520000000     0.0413536  
C186     C      0.091400000000     0.636450000000     0.641440000000     0.0612937  
C187     C      0.167010000000     0.606080000000     0.679890000000     0.0323716  
C188     C      0.117280000000     0.663530000000     0.669320000000    -0.00401657 
C189     C      0.104980000000     0.709770000000     0.669880000000     0.307498   
C190     C      0.115410000000     0.655110000000     0.898060000000     0.0410148  
C191     C      0.176070000000     0.609400000000     0.907180000000     0.0606761  
C192     C      0.093140000000     0.632000000000     0.932210000000     0.0328556  
C193     C      0.154550000000     0.586900000000     0.943100000000    -0.00466561 
C194     C      0.181190000000     0.556080000000     0.970840000000     0.308449   
C195     C      0.085810000000     0.861930000000     0.661500000000     0.0394212  
C196     C      0.147990000000     0.901850000000     0.640380000000     0.0626308  
C197     C      0.111290000000     0.836370000000     0.690950000000     0.0386177  
C198     C      0.174400000000     0.874110000000     0.666940000000    -0.00274469 
C199     C      0.221930000000     0.875740000000     0.657540000000     0.312784   
C200     C      0.365940000000     0.582210000000     0.648060000000     0.0379153  
C201     C      0.411500000000     0.641510000000     0.632600000000     0.0610252  
C202     C      0.340640000000     0.607670000000     0.677670000000     0.0347063  
C203     C      0.384860000000     0.668060000000     0.660630000000    -0.0051167  
C204     C      0.391100000000     0.715320000000     0.656280000000     0.312007   
C205     C      0.339080000000     0.880600000000     0.903550000000     0.040081   
C206     C      0.387470000000     0.822130000000     0.911230000000     0.0592398  
C207     C      0.362250000000     0.903260000000     0.937480000000     0.0345918  
C208     C      0.410060000000     0.844000000000     0.946860000000    -0.00349267 
C209     C      0.442690000000     0.818590000000     0.973680000000     0.308491   
C210     C      0.365860000000     0.576850000000     0.924300000000     0.0397068  
C211     C      0.426510000000     0.622470000000     0.914690000000     0.0601206  
C212     C      0.343410000000     0.600030000000     0.890070000000     0.0322575  
C213     C      0.404870000000     0.644970000000     0.878930000000    -0.00439961 
C214     C      0.431340000000     0.675810000000     0.850950000000     0.307314   
C215     C      0.112350000000     0.830090000000     0.899600000000     0.0418962  
C216     C      0.175250000000     0.871290000000     0.914590000000     0.0611278  
C217     C      0.089950000000     0.852960000000     0.934110000000     0.0318664  
C218     C      0.153800000000     0.892800000000     0.951200000000    -0.00236919 
C219     C      0.181650000000     0.917980000000     0.984010000000     0.309407   
C220     C      0.399050000000     0.838140000000     0.692410000000     0.0325607  
C221     C      0.341210000000     0.887690000000     0.689150000000     0.0532656  
C222     C      0.421810000000     0.862390000000     0.659390000000     0.0334502  
C223     C      0.362590000000     0.911030000000     0.653930000000    -0.00427048 
C224     C      0.336340000000     0.945180000000     0.630830000000     0.310647   
C225     C      0.923370000000     0.411670000000     0.487140000000     0.405151   
C226     C      0.586480000000     0.072710000000     0.483580000000     0.405295   
C227     C      0.928700000000     0.067140000000     0.472260000000     0.402508   
C228     C      0.584970000000     0.411170000000     0.487500000000     0.402801   
C229     C      0.579730000000     0.418910000000     0.105950000000     0.399362   
C230     C      0.926420000000     0.073490000000     0.096870000000     0.395969   
C231     C      0.927790000000     0.420990000000     0.106650000000     0.398926   
C232     C      0.580030000000     0.070150000000     0.101450000000     0.400476   
C233     C      0.833960000000     0.324450000000     0.235440000000     0.3953     
C234     C      0.678150000000     0.170270000000     0.223260000000     0.399201   
C235     C      0.827750000000     0.172460000000     0.219290000000     0.400645   
C236     C      0.678670000000     0.319010000000     0.226750000000     0.404536   
C237     C      0.676640000000     0.318340000000     0.354530000000     0.402277   
C238     C      0.836510000000     0.160660000000     0.340110000000     0.404733   
C239     C      0.829880000000     0.318590000000     0.355540000000     0.401803   
C240     C      0.678420000000     0.166240000000     0.351290000000     0.405349   
C241     C      0.641990000000     0.080070000000     0.150520000000     0.0413458  
C242     C      0.591400000000     0.136450000000     0.141440000000     0.0612916  
C243     C      0.667010000000     0.106080000000     0.179890000000     0.0323829  
C244     C      0.617280000000     0.163530000000     0.169320000000    -0.00399783 
C245     C      0.604980000000     0.209770000000     0.169880000000     0.307468   
C246     C      0.615410000000     0.155110000000     0.398050000000     0.0410414  
C247     C      0.676060000000     0.109400000000     0.407170000000     0.0607296  
C248     C      0.593130000000     0.132000000000     0.432210000000     0.0328521  
C249     C      0.654550000000     0.086900000000     0.443100000000    -0.00467276 
C250     C      0.681190000000     0.056080000000     0.470840000000     0.308286   
C251     C      0.585810000000     0.361920000000     0.161500000000     0.0394006  
C252     C      0.647990000000     0.401850000000     0.140380000000     0.0625787  
C253     C      0.611290000000     0.336370000000     0.190950000000     0.0386312  
C254     C      0.674400000000     0.374110000000     0.166940000000    -0.00272046 
C255     C      0.721930000000     0.375740000000     0.157540000000     0.312776   
C256     C      0.865930000000     0.082210000000     0.148060000000     0.0378646  
C257     C      0.911500000000     0.141510000000     0.132600000000     0.0610388  
C258     C      0.840640000000     0.107670000000     0.177670000000     0.0347329  
C259     C      0.884870000000     0.168060000000     0.160630000000    -0.00514586 
C260     C      0.891100000000     0.215320000000     0.156280000000     0.312005   
C261     C      0.839080000000     0.380590000000     0.403560000000     0.0401494  
C262     C      0.887470000000     0.322130000000     0.411230000000     0.0592251  
C263     C      0.862250000000     0.403260000000     0.437480000000     0.0345462  
C264     C      0.910060000000     0.344000000000     0.446860000000    -0.00347166 
C265     C      0.942690000000     0.318590000000     0.473680000000     0.3084     
C266     C      0.865860000000     0.076850000000     0.424300000000     0.0397091  
C267     C      0.926500000000     0.122470000000     0.414690000000     0.0601552  
C268     C      0.843410000000     0.100030000000     0.390070000000     0.0322547  
C269     C      0.904870000000     0.144970000000     0.378930000000    -0.00437348 
C270     C      0.931340000000     0.175810000000     0.350950000000     0.307269   
C271     C      0.612350000000     0.330090000000     0.399600000000     0.041883   
C272     C      0.675250000000     0.371290000000     0.414600000000     0.0610911  
C273     C      0.589950000000     0.352960000000     0.434120000000     0.0318916  
C274     C      0.653800000000     0.392800000000     0.451200000000    -0.00233857 
C275     C      0.681650000000     0.417980000000     0.484010000000     0.309273   
C276     C      0.899050000000     0.338140000000     0.192410000000     0.0325596  
C277     C      0.841210000000     0.387690000000     0.189160000000     0.0532979  
C278     C      0.921810000000     0.362390000000     0.159390000000     0.0334794  
C279     C      0.862590000000     0.411030000000     0.153930000000    -0.00430104 
C280     C      0.836340000000     0.445180000000     0.130820000000     0.310868   
C281     C      0.923370000000     0.411670000000     0.987140000000     0.405247   
C282     C      0.586480000000     0.072710000000     0.983580000000     0.405288   
C283     C      0.928700000000     0.067140000000     0.972250000000     0.402376   
C284     C      0.584970000000     0.411170000000     0.987500000000     0.4029     
C285     C      0.579730000000     0.418910000000     0.605950000000     0.39932    
C286     C      0.926420000000     0.073490000000     0.596870000000     0.395953   
C287     C      0.927790000000     0.420990000000     0.606650000000     0.398897   
C288     C      0.580030000000     0.070150000000     0.601450000000     0.400533   
C289     C      0.833960000000     0.324450000000     0.735440000000     0.395298   
C290     C      0.678150000000     0.170270000000     0.723260000000     0.399202   
C291     C      0.827750000000     0.172460000000     0.719290000000     0.400682   
C292     C      0.678670000000     0.319010000000     0.726750000000     0.404537   
C293     C      0.676640000000     0.318340000000     0.854530000000     0.402281   
C294     C      0.836510000000     0.160660000000     0.840110000000     0.404733   
C295     C      0.829880000000     0.318590000000     0.855540000000     0.401751   
C296     C      0.678420000000     0.166240000000     0.851290000000     0.40535    
C297     C      0.641990000000     0.080070000000     0.650520000000     0.0413402  
C298     C      0.591400000000     0.136450000000     0.641440000000     0.0613004  
C299     C      0.667010000000     0.106080000000     0.679890000000     0.0323874  
C300     C      0.617280000000     0.163530000000     0.669320000000    -0.00400703 
C301     C      0.604980000000     0.209770000000     0.669880000000     0.307499   
C302     C      0.615410000000     0.155110000000     0.898060000000     0.0410377  
C303     C      0.676060000000     0.109400000000     0.907180000000     0.0607235  
C304     C      0.593130000000     0.132000000000     0.932210000000     0.0328525  
C305     C      0.654550000000     0.086900000000     0.943100000000    -0.00469234 
C306     C      0.681190000000     0.056080000000     0.970840000000     0.308379   
C307     C      0.585810000000     0.361920000000     0.661500000000     0.0394116  
C308     C      0.647990000000     0.401850000000     0.640380000000     0.0625705  
C309     C      0.611290000000     0.336370000000     0.690950000000     0.0386309  
C310     C      0.674400000000     0.374110000000     0.666940000000    -0.00271444 
C311     C      0.721930000000     0.375740000000     0.657540000000     0.312775   
C312     C      0.865930000000     0.082210000000     0.648060000000     0.0378615  
C313     C      0.911500000000     0.141510000000     0.632600000000     0.0610406  
C314     C      0.840640000000     0.107670000000     0.677670000000     0.0347415  
C315     C      0.884870000000     0.168060000000     0.660630000000    -0.00514179 
C316     C      0.891100000000     0.215320000000     0.656280000000     0.312006   
C317     C      0.839080000000     0.380590000000     0.903550000000     0.0401578  
C318     C      0.887470000000     0.322130000000     0.911230000000     0.0592468  
C319     C      0.862250000000     0.403260000000     0.937480000000     0.0345636  
C320     C      0.910060000000     0.344000000000     0.946860000000    -0.00348794 
C321     C      0.942690000000     0.318590000000     0.973680000000     0.308493   
C322     C      0.865860000000     0.076850000000     0.924300000000     0.0397157  
C323     C      0.926500000000     0.122470000000     0.914690000000     0.0601594  
C324     C      0.843410000000     0.100030000000     0.890070000000     0.0322565  
C325     C      0.904870000000     0.144970000000     0.878930000000    -0.00437095 
C326     C      0.931340000000     0.175810000000     0.850950000000     0.307267   
C327     C      0.612350000000     0.330090000000     0.899600000000     0.0419056  
C328     C      0.675250000000     0.371290000000     0.914590000000     0.0611376  
C329     C      0.589950000000     0.352960000000     0.934110000000     0.0318701  
C330     C      0.653800000000     0.392800000000     0.951200000000    -0.00237672 
C331     C      0.681650000000     0.417980000000     0.984010000000     0.309438   
C332     C      0.899050000000     0.338140000000     0.692410000000     0.0325578  
C333     C      0.841210000000     0.387690000000     0.689150000000     0.0532713  
C334     C      0.921810000000     0.362390000000     0.659390000000     0.0334783  
C335     C      0.862590000000     0.411030000000     0.653930000000    -0.00427073 
C336     C      0.836340000000     0.445180000000     0.630830000000     0.310702   
C337     C      0.923370000000     0.911670000000     0.487140000000     0.405149   
C338     C      0.586480000000     0.572710000000     0.483580000000     0.405299   
C339     C      0.928700000000     0.567140000000     0.472260000000     0.402511   
C340     C      0.584970000000     0.911170000000     0.487500000000     0.402935   
C341     C      0.579730000000     0.918900000000     0.105950000000     0.399338   
C342     C      0.926420000000     0.573490000000     0.096870000000     0.395974   
C343     C      0.927790000000     0.920990000000     0.106650000000     0.398923   
C344     C      0.580030000000     0.570150000000     0.101450000000     0.400481   
C345     C      0.833960000000     0.824450000000     0.235440000000     0.39532    
C346     C      0.678150000000     0.670270000000     0.223260000000     0.399182   
C347     C      0.827750000000     0.672460000000     0.219290000000     0.400626   
C348     C      0.678670000000     0.819010000000     0.226750000000     0.404552   
C349     C      0.676640000000     0.818340000000     0.354530000000     0.402294   
C350     C      0.836510000000     0.660660000000     0.340110000000     0.404526   
C351     C      0.829880000000     0.818590000000     0.355540000000     0.401819   
C352     C      0.678420000000     0.666240000000     0.351290000000     0.40533    
C353     C      0.641990000000     0.580070000000     0.150520000000     0.0413619  
C354     C      0.591400000000     0.636450000000     0.141440000000     0.0612907  
C355     C      0.667010000000     0.606080000000     0.179890000000     0.0323693  
C356     C      0.617280000000     0.663530000000     0.169320000000    -0.00400005 
C357     C      0.604980000000     0.709770000000     0.169880000000     0.307469   
C358     C      0.615410000000     0.655110000000     0.398050000000     0.04104    
C359     C      0.676060000000     0.609400000000     0.407170000000     0.0607266  
C360     C      0.593130000000     0.632000000000     0.432210000000     0.03285    
C361     C      0.654550000000     0.586900000000     0.443100000000    -0.00467791 
C362     C      0.681190000000     0.556080000000     0.470840000000     0.308284   
C363     C      0.585810000000     0.861930000000     0.161500000000     0.039451   
C364     C      0.647990000000     0.901850000000     0.140380000000     0.0625886  
C365     C      0.611290000000     0.836370000000     0.190950000000     0.0386081  
C366     C      0.674400000000     0.874110000000     0.166940000000    -0.00273168 
C367     C      0.721930000000     0.875740000000     0.157540000000     0.31278    
C368     C      0.865930000000     0.582210000000     0.148060000000     0.0378625  
C369     C      0.911500000000     0.641510000000     0.132600000000     0.06105    
C370     C      0.840640000000     0.607670000000     0.177670000000     0.0347258  
C371     C      0.884870000000     0.668060000000     0.160630000000    -0.0051539  
C372     C      0.891100000000     0.715320000000     0.156280000000     0.312007   
C373     C      0.839080000000     0.880600000000     0.403560000000     0.0400743  
C374     C      0.887470000000     0.822130000000     0.411230000000     0.0592207  
C375     C      0.862250000000     0.903260000000     0.437480000000     0.0345774  
C376     C      0.910060000000     0.844000000000     0.446860000000    -0.00346773 
C377     C      0.942690000000     0.818590000000     0.473680000000     0.308399   
C378     C      0.865860000000     0.576850000000     0.424300000000     0.0396946  
C379     C      0.926500000000     0.622470000000     0.414690000000     0.0601661  
C380     C      0.843410000000     0.600030000000     0.390070000000     0.0322758  
C381     C      0.904870000000     0.644970000000     0.378930000000    -0.00440928 
C382     C      0.931340000000     0.675810000000     0.350950000000     0.307277   
C383     C      0.612350000000     0.830090000000     0.399600000000     0.0418799  
C384     C      0.675250000000     0.871290000000     0.414600000000     0.0610827  
C385     C      0.589950000000     0.852960000000     0.434120000000     0.0318932  
C386     C      0.653800000000     0.892800000000     0.451200000000    -0.00232984 
C387     C      0.681650000000     0.917980000000     0.484010000000     0.309241   
C388     C      0.899050000000     0.838140000000     0.192410000000     0.0325592  
C389     C      0.841210000000     0.887690000000     0.189160000000     0.0532978  
C390     C      0.921810000000     0.862390000000     0.159390000000     0.0334768  
C391     C      0.862590000000     0.911030000000     0.153930000000    -0.00430757 
C392     C      0.836340000000     0.945180000000     0.130820000000     0.310863   
C393     C      0.923370000000     0.911670000000     0.987140000000     0.405245   
C394     C      0.586480000000     0.572710000000     0.983580000000     0.405292   
C395     C      0.928700000000     0.567140000000     0.972250000000     0.402378   
C396     C      0.584970000000     0.911170000000     0.987500000000     0.403033   
C397     C      0.579730000000     0.918900000000     0.605950000000     0.399296   
C398     C      0.926420000000     0.573490000000     0.596870000000     0.395958   
C399     C      0.927790000000     0.920990000000     0.606650000000     0.398895   
C400     C      0.580030000000     0.570150000000     0.601450000000     0.400537   
C401     C      0.833960000000     0.824450000000     0.735440000000     0.395319   
C402     C      0.678150000000     0.670270000000     0.723260000000     0.399183   
C403     C      0.827750000000     0.672460000000     0.719290000000     0.400663   
C404     C      0.678670000000     0.819010000000     0.726750000000     0.404553   
C405     C      0.676640000000     0.818340000000     0.854530000000     0.402298   
C406     C      0.836510000000     0.660660000000     0.840110000000     0.404526   
C407     C      0.829880000000     0.818590000000     0.855540000000     0.401766   
C408     C      0.678420000000     0.666240000000     0.851290000000     0.405331   
C409     C      0.641990000000     0.580070000000     0.650520000000     0.0413563  
C410     C      0.591400000000     0.636450000000     0.641440000000     0.0612995  
C411     C      0.667010000000     0.606080000000     0.679890000000     0.0323737  
C412     C      0.617280000000     0.663530000000     0.669320000000    -0.00400925 
C413     C      0.604980000000     0.709770000000     0.669880000000     0.3075     
C414     C      0.615410000000     0.655110000000     0.898060000000     0.0410363  
C415     C      0.676060000000     0.609400000000     0.907180000000     0.0607205  
C416     C      0.593130000000     0.632000000000     0.932210000000     0.0328504  
C417     C      0.654550000000     0.586900000000     0.943100000000    -0.00469749 
C418     C      0.681190000000     0.556080000000     0.970840000000     0.308377   
C419     C      0.585810000000     0.861930000000     0.661500000000     0.039462   
C420     C      0.647990000000     0.901850000000     0.640380000000     0.0625805  
C421     C      0.611290000000     0.836370000000     0.690950000000     0.0386078  
C422     C      0.674400000000     0.874110000000     0.666940000000    -0.00272566 
C423     C      0.721930000000     0.875740000000     0.657540000000     0.312779   
C424     C      0.865930000000     0.582210000000     0.648060000000     0.0378594  
C425     C      0.911500000000     0.641510000000     0.632600000000     0.0610518  
C426     C      0.840640000000     0.607670000000     0.677670000000     0.0347344  
C427     C      0.884870000000     0.668060000000     0.660630000000    -0.00514983 
C428     C      0.891100000000     0.715320000000     0.656280000000     0.312008   
C429     C      0.839080000000     0.880600000000     0.903550000000     0.0400827  
C430     C      0.887470000000     0.822130000000     0.911230000000     0.0592424  
C431     C      0.862250000000     0.903260000000     0.937480000000     0.0345948  
C432     C      0.910060000000     0.844000000000     0.946860000000    -0.00348401 
C433     C      0.942690000000     0.818590000000     0.973680000000     0.308492   
C434     C      0.865860000000     0.576850000000     0.924300000000     0.0397012  
C435     C      0.926500000000     0.622470000000     0.914690000000     0.0601703  
C436     C      0.843410000000     0.600030000000     0.890070000000     0.0322775  
C437     C      0.904870000000     0.644970000000     0.878930000000    -0.00440675 
C438     C      0.931340000000     0.675810000000     0.850950000000     0.307275   
C439     C      0.612350000000     0.830090000000     0.899600000000     0.0419025  
C440     C      0.675250000000     0.871290000000     0.914590000000     0.0611292  
C441     C      0.589950000000     0.852960000000     0.934110000000     0.0318717  
C442     C      0.653800000000     0.892800000000     0.951200000000    -0.00236797 
C443     C      0.681650000000     0.917980000000     0.984010000000     0.309406   
C444     C      0.899050000000     0.838140000000     0.692410000000     0.0325574  
C445     C      0.841210000000     0.887690000000     0.689150000000     0.0532712  
C446     C      0.921810000000     0.862390000000     0.659390000000     0.0334758  
C447     C      0.862590000000     0.911030000000     0.653930000000    -0.00427726 
C448     C      0.836340000000     0.945180000000     0.630830000000     0.310697   
Co1      Co     0.003900000000     0.429850000000     0.542230000000     0.844876   
Co2      Co     0.504530000000     0.057300000000     0.036860000000     0.847322   
Co3      Co     0.439600000000     0.493920000000     0.539250000000     0.842772   
Co4      Co     0.068770000000     0.493060000000     0.039810000000     0.843303   
Co5      Co     0.254060000000     0.307040000000     0.292110000000     0.850855   
Co6      Co     0.254550000000     0.179750000000     0.287740000000     0.851471   
Co7      Co     0.318870000000     0.243730000000     0.290090000000     0.84312    
Co8      Co     0.189230000000     0.243530000000     0.290580000000     0.851015   
Co9      Co     0.003900000000     0.429850000000     0.042230000000     0.844802   
Co10     Co     0.504530000000     0.057300000000     0.536860000000     0.847388   
Co11     Co     0.439600000000     0.493920000000     0.039250000000     0.842715   
Co12     Co     0.068770000000     0.493060000000     0.539810000000     0.843393   
Co13     Co     0.254060000000     0.307040000000     0.792110000000     0.850853   
Co14     Co     0.254550000000     0.179750000000     0.787740000000     0.851429   
Co15     Co     0.318870000000     0.243730000000     0.790090000000     0.84312    
Co16     Co     0.189230000000     0.243530000000     0.790580000000     0.85102    
Co17     Co     0.003900000000     0.929850000000     0.542230000000     0.844907   
Co18     Co     0.504530000000     0.557300000000     0.036860000000     0.847225   
Co19     Co     0.439600000000     0.993920000000     0.539250000000     0.84264    
Co20     Co     0.068770000000     0.993060000000     0.039810000000     0.843139   
Co21     Co     0.254060000000     0.807050000000     0.292110000000     0.850963   
Co22     Co     0.254550000000     0.679760000000     0.287740000000     0.851349   
Co23     Co     0.318870000000     0.743730000000     0.290090000000     0.843144   
Co24     Co     0.189230000000     0.743530000000     0.290580000000     0.851018   
Co25     Co     0.003900000000     0.929850000000     0.042230000000     0.844833   
Co26     Co     0.504530000000     0.557300000000     0.536860000000     0.847291   
Co27     Co     0.439600000000     0.993920000000     0.039250000000     0.842583   
Co28     Co     0.068770000000     0.993060000000     0.539810000000     0.843229   
Co29     Co     0.254060000000     0.807050000000     0.792110000000     0.850961   
Co30     Co     0.254550000000     0.679760000000     0.787740000000     0.851307   
Co31     Co     0.318870000000     0.743730000000     0.790090000000     0.843144   
Co32     Co     0.189230000000     0.743530000000     0.790580000000     0.851022   
Co33     Co     0.503900000000     0.429850000000     0.542230000000     0.84505    
Co34     Co     0.004520000000     0.057300000000     0.036860000000     0.847131   
Co35     Co     0.939600000000     0.493920000000     0.539250000000     0.842777   
Co36     Co     0.568770000000     0.493060000000     0.039810000000     0.843114   
Co37     Co     0.754060000000     0.307040000000     0.292110000000     0.850854   
Co38     Co     0.754550000000     0.179750000000     0.287740000000     0.85147    
Co39     Co     0.818870000000     0.243730000000     0.290090000000     0.843121   
Co40     Co     0.689230000000     0.243530000000     0.290580000000     0.851016   
Co41     Co     0.503900000000     0.429850000000     0.042230000000     0.844976   
Co42     Co     0.004520000000     0.057300000000     0.536860000000     0.847197   
Co43     Co     0.939600000000     0.493920000000     0.039250000000     0.84272    
Co44     Co     0.568770000000     0.493060000000     0.539810000000     0.843204   
Co45     Co     0.754060000000     0.307040000000     0.792110000000     0.850852   
Co46     Co     0.754550000000     0.179750000000     0.787740000000     0.851428   
Co47     Co     0.818870000000     0.243730000000     0.790090000000     0.843121   
Co48     Co     0.689230000000     0.243530000000     0.790580000000     0.851021   
Co49     Co     0.503900000000     0.929850000000     0.542230000000     0.845081   
Co50     Co     0.004520000000     0.557300000000     0.036860000000     0.847035   
Co51     Co     0.939600000000     0.993920000000     0.539250000000     0.842645   
Co52     Co     0.568770000000     0.993060000000     0.039810000000     0.84295    
Co53     Co     0.754060000000     0.807050000000     0.292110000000     0.850962   
Co54     Co     0.754550000000     0.679760000000     0.287740000000     0.851348   
Co55     Co     0.818870000000     0.743730000000     0.290090000000     0.843145   
Co56     Co     0.689230000000     0.743530000000     0.290580000000     0.851019   
Co57     Co     0.503900000000     0.929850000000     0.042230000000     0.845007   
Co58     Co     0.004520000000     0.557300000000     0.536860000000     0.847101   
Co59     Co     0.939600000000     0.993920000000     0.039250000000     0.842588   
Co60     Co     0.568770000000     0.993060000000     0.539810000000     0.84304    
Co61     Co     0.754060000000     0.807050000000     0.792110000000     0.850959   
Co62     Co     0.754550000000     0.679760000000     0.787740000000     0.851306   
Co63     Co     0.818870000000     0.743730000000     0.790090000000     0.843145   
Co64     Co     0.689230000000     0.743530000000     0.790580000000     0.851024   
H1       H      0.196150000000     0.091820000000     0.194750000000     0.0514836  
H2       H      0.153460000000     0.047630000000     0.143580000000     0.0494204  
H3       H      0.062310000000     0.149910000000     0.125500000000     0.0565689  
H4       H      0.053900000000     0.250990000000     0.176670000000     0.189811   
H5       H      0.060010000000     0.142010000000     0.439730000000     0.0551447  
H6       H      0.098720000000     0.182010000000     0.381750000000     0.0531477  
H7       H      0.209490000000     0.100710000000     0.399040000000     0.0513104  
H8       H      0.196680000000     0.036890000000     0.536800000000     0.192905   
H9       H      0.094690000000     0.312130000000     0.211650000000     0.0503076  
H10      H      0.051150000000     0.355360000000     0.159790000000     0.0443358  
H11      H      0.163650000000     0.426670000000     0.119570000000     0.0639605  
H12      H      0.275110000000     0.338820000000     0.143560000000     0.188927   
H13      H      0.313700000000     0.092000000000     0.195390000000     0.0519381  
H14      H      0.356830000000     0.048740000000     0.143900000000     0.0538954  
H15      H      0.438320000000     0.156200000000     0.113660000000     0.0545549  
H16      H      0.359290000000     0.271540000000     0.143220000000     0.189353   
H17      H      0.351090000000     0.435570000000     0.445660000000     0.0542672  
H18      H      0.311010000000     0.396250000000     0.387990000000     0.0529982  
H19      H      0.397360000000     0.289480000000     0.402600000000     0.0591329  
H20      H      0.462460000000     0.302150000000     0.039190000000     0.196207   
H21      H      0.310220000000     0.090210000000     0.382600000000     0.0531845  
H22      H      0.349280000000     0.050010000000     0.440850000000     0.0502654  
H23      H      0.459970000000     0.131230000000     0.422550000000     0.052211   
H24      H      0.446520000000     0.194510000000     0.284730000000     0.19874    
H25      H      0.055870000000     0.345130000000     0.439380000000     0.0601553  
H26      H      0.094850000000     0.305220000000     0.380680000000     0.05202    
H27      H      0.209590000000     0.377900000000     0.408960000000     0.0563687  
H28      H      0.236330000000     0.454600000000     0.988640000000     0.201378   
H29      H      0.454110000000     0.351180000000     0.149990000000     0.0516016  
H30      H      0.414510000000     0.309380000000     0.206150000000     0.0565586  
H31      H      0.309370000000     0.398610000000     0.200450000000     0.0644773  
H32      H      0.296210000000     0.495960000000     0.643250000000     0.191318   
H33      H      0.196150000000     0.091820000000     0.694750000000     0.0514852  
H34      H      0.153460000000     0.047630000000     0.643580000000     0.0494257  
H35      H      0.062310000000     0.149910000000     0.625500000000     0.0565752  
H36      H      0.053900000000     0.250990000000     0.676680000000     0.18982    
H37      H      0.060010000000     0.142010000000     0.939730000000     0.0551503  
H38      H      0.098720000000     0.182010000000     0.881750000000     0.0531546  
H39      H      0.209490000000     0.100710000000     0.899050000000     0.051314   
H40      H      0.196680000000     0.036890000000     0.036800000000     0.192903   
H41      H      0.094690000000     0.312130000000     0.711650000000     0.0503062  
H42      H      0.051150000000     0.355360000000     0.659780000000     0.0443375  
H43      H      0.163650000000     0.426670000000     0.619570000000     0.0639636  
H44      H      0.275110000000     0.338820000000     0.643560000000     0.188933   
H45      H      0.313700000000     0.092000000000     0.695390000000     0.0519409  
H46      H      0.356830000000     0.048740000000     0.643890000000     0.0538985  
H47      H      0.438320000000     0.156200000000     0.613660000000     0.0545625  
H48      H      0.359290000000     0.271540000000     0.643220000000     0.189357   
H49      H      0.351090000000     0.435570000000     0.945660000000     0.0542771  
H50      H      0.311010000000     0.396250000000     0.887990000000     0.0529926  
H51      H      0.397360000000     0.289480000000     0.902600000000     0.0591294  
H52      H      0.462460000000     0.302150000000     0.539190000000     0.196207   
H53      H      0.310220000000     0.090210000000     0.882600000000     0.053187   
H54      H      0.349280000000     0.050010000000     0.940850000000     0.0502692  
H55      H      0.459970000000     0.131230000000     0.922550000000     0.0522074  
H56      H      0.446520000000     0.194510000000     0.784730000000     0.198738   
H57      H      0.055870000000     0.345130000000     0.939380000000     0.0601794  
H58      H      0.094850000000     0.305220000000     0.880670000000     0.0520206  
H59      H      0.209590000000     0.377900000000     0.908960000000     0.0563578  
H60      H      0.236330000000     0.454600000000     0.488650000000     0.201264   
H61      H      0.454110000000     0.351180000000     0.649990000000     0.0515983  
H62      H      0.414510000000     0.309380000000     0.706150000000     0.0565582  
H63      H      0.309370000000     0.398610000000     0.700450000000     0.0644887  
H64      H      0.296210000000     0.495960000000     0.143250000000     0.191378   
H65      H      0.196150000000     0.591820000000     0.194750000000     0.0514781  
H66      H      0.153460000000     0.547620000000     0.143580000000     0.0494022  
H67      H      0.062310000000     0.649910000000     0.125500000000     0.0565687  
H68      H      0.053900000000     0.750990000000     0.176670000000     0.189811   
H69      H      0.060010000000     0.642010000000     0.439730000000     0.0551442  
H70      H      0.098720000000     0.682010000000     0.381750000000     0.0531478  
H71      H      0.209490000000     0.600710000000     0.399040000000     0.051307   
H72      H      0.196680000000     0.536890000000     0.536800000000     0.192885   
H73      H      0.094690000000     0.812130000000     0.211650000000     0.0503116  
H74      H      0.051150000000     0.855360000000     0.159790000000     0.0443156  
H75      H      0.163650000000     0.926670000000     0.119570000000     0.0639464  
H76      H      0.275110000000     0.838820000000     0.143560000000     0.188928   
H77      H      0.313700000000     0.592000000000     0.195390000000     0.0519299  
H78      H      0.356830000000     0.548740000000     0.143900000000     0.0538718  
H79      H      0.438320000000     0.656210000000     0.113660000000     0.0545517  
H80      H      0.359290000000     0.771540000000     0.143220000000     0.189354   
H81      H      0.351090000000     0.935570000000     0.445660000000     0.0542449  
H82      H      0.311010000000     0.896250000000     0.387990000000     0.0530116  
H83      H      0.397360000000     0.789480000000     0.402600000000     0.0591348  
H84      H      0.462460000000     0.802150000000     0.039190000000     0.196207   
H85      H      0.310220000000     0.590210000000     0.382600000000     0.0531726  
H86      H      0.349280000000     0.550010000000     0.440850000000     0.0502522  
H87      H      0.459970000000     0.631230000000     0.422550000000     0.0522062  
H88      H      0.446520000000     0.694510000000     0.284730000000     0.19874    
H89      H      0.055870000000     0.845130000000     0.439380000000     0.0601516  
H90      H      0.094850000000     0.805220000000     0.380680000000     0.0520194  
H91      H      0.209590000000     0.877900000000     0.408960000000     0.0563654  
H92      H      0.236330000000     0.954610000000     0.988640000000     0.201301   
H93      H      0.454110000000     0.851180000000     0.149990000000     0.0516012  
H94      H      0.414510000000     0.809380000000     0.206150000000     0.0565578  
H95      H      0.309370000000     0.898610000000     0.200450000000     0.0644712  
H96      H      0.296210000000     0.995960000000     0.643250000000     0.191292   
H97      H      0.196150000000     0.591820000000     0.694750000000     0.0514797  
H98      H      0.153460000000     0.547620000000     0.643580000000     0.0494075  
H99      H      0.062310000000     0.649910000000     0.625500000000     0.056575   
H100     H      0.053900000000     0.750990000000     0.676680000000     0.18982    
H101     H      0.060010000000     0.642010000000     0.939730000000     0.0551499  
H102     H      0.098720000000     0.682010000000     0.881750000000     0.0531547  
H103     H      0.209490000000     0.600710000000     0.899050000000     0.0513107  
H104     H      0.196680000000     0.536890000000     0.036800000000     0.192883   
H105     H      0.094690000000     0.812130000000     0.711650000000     0.0503102  
H106     H      0.051150000000     0.855360000000     0.659780000000     0.0443173  
H107     H      0.163650000000     0.926670000000     0.619570000000     0.0639495  
H108     H      0.275110000000     0.838820000000     0.643560000000     0.188934   
H109     H      0.313700000000     0.592000000000     0.695390000000     0.0519327  
H110     H      0.356830000000     0.548740000000     0.643890000000     0.0538748  
H111     H      0.438320000000     0.656210000000     0.613660000000     0.0545593  
H112     H      0.359290000000     0.771540000000     0.643220000000     0.189358   
H113     H      0.351090000000     0.935570000000     0.945660000000     0.0542548  
H114     H      0.311010000000     0.896250000000     0.887990000000     0.053006   
H115     H      0.397360000000     0.789480000000     0.902600000000     0.0591313  
H116     H      0.462460000000     0.802150000000     0.539190000000     0.196207   
H117     H      0.310220000000     0.590210000000     0.882600000000     0.053175   
H118     H      0.349280000000     0.550010000000     0.940850000000     0.050256   
H119     H      0.459970000000     0.631230000000     0.922550000000     0.0522027  
H120     H      0.446520000000     0.694510000000     0.784730000000     0.198739   
H121     H      0.055870000000     0.845130000000     0.939380000000     0.0601757  
H122     H      0.094850000000     0.805220000000     0.880670000000     0.0520201  
H123     H      0.209590000000     0.877900000000     0.908960000000     0.0563546  
H124     H      0.236330000000     0.954610000000     0.488650000000     0.201187   
H125     H      0.454110000000     0.851180000000     0.649990000000     0.0515979  
H126     H      0.414510000000     0.809380000000     0.706150000000     0.0565573  
H127     H      0.309370000000     0.898610000000     0.700450000000     0.0644826  
H128     H      0.296210000000     0.995960000000     0.143250000000     0.191352   
H129     H      0.696150000000     0.091820000000     0.194750000000     0.051484   
H130     H      0.653460000000     0.047630000000     0.143580000000     0.0494218  
H131     H      0.562310000000     0.149910000000     0.125500000000     0.0565889  
H132     H      0.553900000000     0.250990000000     0.176670000000     0.18983    
H133     H      0.560010000000     0.142010000000     0.439730000000     0.0551753  
H134     H      0.598720000000     0.182010000000     0.381750000000     0.0531584  
H135     H      0.709480000000     0.100710000000     0.399040000000     0.0512982  
H136     H      0.696680000000     0.036890000000     0.536800000000     0.192899   
H137     H      0.594690000000     0.312130000000     0.211650000000     0.0503216  
H138     H      0.551150000000     0.355360000000     0.159790000000     0.044357   
H139     H      0.663650000000     0.426670000000     0.119570000000     0.0639794  
H140     H      0.775110000000     0.338820000000     0.143560000000     0.188927   
H141     H      0.813700000000     0.092000000000     0.195390000000     0.0519332  
H142     H      0.856830000000     0.048740000000     0.143900000000     0.0539221  
H143     H      0.938320000000     0.156200000000     0.113660000000     0.0545679  
H144     H      0.859300000000     0.271540000000     0.143220000000     0.189339   
H145     H      0.851090000000     0.435570000000     0.445660000000     0.0542686  
H146     H      0.811010000000     0.396250000000     0.387990000000     0.0529988  
H147     H      0.897360000000     0.289480000000     0.402600000000     0.0591375  
H148     H      0.962460000000     0.302150000000     0.039190000000     0.19623    
H149     H      0.810210000000     0.090210000000     0.382600000000     0.0531844  
H150     H      0.849280000000     0.050010000000     0.440850000000     0.0502685  
H151     H      0.959970000000     0.131230000000     0.422550000000     0.0522285  
H152     H      0.946520000000     0.194510000000     0.284730000000     0.198681   
H153     H      0.555870000000     0.345130000000     0.439380000000     0.0601828  
H154     H      0.594850000000     0.305220000000     0.380680000000     0.0520343  
H155     H      0.709590000000     0.377900000000     0.408960000000     0.0563681  
H156     H      0.736330000000     0.454600000000     0.988640000000     0.201377   
H157     H      0.954120000000     0.351180000000     0.149990000000     0.0516221  
H158     H      0.914510000000     0.309380000000     0.206150000000     0.0565705  
H159     H      0.809370000000     0.398610000000     0.200450000000     0.064473   
H160     H      0.796210000000     0.495960000000     0.643250000000     0.191254   
H161     H      0.696150000000     0.091820000000     0.694750000000     0.0514856  
H162     H      0.653460000000     0.047630000000     0.643580000000     0.0494271  
H163     H      0.562310000000     0.149910000000     0.625500000000     0.0565952  
H164     H      0.553900000000     0.250990000000     0.676680000000     0.189838   
H165     H      0.560010000000     0.142010000000     0.939730000000     0.0551809  
H166     H      0.598720000000     0.182010000000     0.881750000000     0.0531654  
H167     H      0.709480000000     0.100710000000     0.899050000000     0.0513018  
H168     H      0.696680000000     0.036890000000     0.036800000000     0.192897   
H169     H      0.594690000000     0.312130000000     0.711650000000     0.0503202  
H170     H      0.551150000000     0.355360000000     0.659780000000     0.0443588  
H171     H      0.663650000000     0.426670000000     0.619570000000     0.0639825  
H172     H      0.775110000000     0.338820000000     0.643560000000     0.188933   
H173     H      0.813700000000     0.092000000000     0.695390000000     0.051936   
H174     H      0.856830000000     0.048740000000     0.643890000000     0.0539251  
H175     H      0.938320000000     0.156200000000     0.613660000000     0.0545756  
H176     H      0.859300000000     0.271540000000     0.643220000000     0.189344   
H177     H      0.851090000000     0.435570000000     0.945660000000     0.0542786  
H178     H      0.811010000000     0.396250000000     0.887990000000     0.0529932  
H179     H      0.897360000000     0.289480000000     0.902600000000     0.059134   
H180     H      0.962460000000     0.302150000000     0.539190000000     0.19623    
H181     H      0.810210000000     0.090210000000     0.882600000000     0.0531868  
H182     H      0.849280000000     0.050010000000     0.940850000000     0.0502723  
H183     H      0.959970000000     0.131230000000     0.922550000000     0.052225   
H184     H      0.946520000000     0.194510000000     0.784730000000     0.19868    
H185     H      0.555870000000     0.345130000000     0.939380000000     0.0602069  
H186     H      0.594850000000     0.305220000000     0.880670000000     0.052035   
H187     H      0.709590000000     0.377900000000     0.908960000000     0.0563572  
H188     H      0.736330000000     0.454600000000     0.488650000000     0.201263   
H189     H      0.954120000000     0.351180000000     0.649990000000     0.0516188  
H190     H      0.914510000000     0.309380000000     0.706150000000     0.0565701  
H191     H      0.809370000000     0.398610000000     0.700450000000     0.0644845  
H192     H      0.796210000000     0.495960000000     0.143250000000     0.191315   
H193     H      0.696150000000     0.591820000000     0.194750000000     0.0514786  
H194     H      0.653460000000     0.547620000000     0.143580000000     0.0494037  
H195     H      0.562310000000     0.649910000000     0.125500000000     0.0565887  
H196     H      0.553900000000     0.750990000000     0.176670000000     0.18983    
H197     H      0.560010000000     0.642010000000     0.439730000000     0.0551748  
H198     H      0.598720000000     0.682010000000     0.381750000000     0.0531585  
H199     H      0.709480000000     0.600710000000     0.399040000000     0.0512949  
H200     H      0.696680000000     0.536890000000     0.536800000000     0.192879   
H201     H      0.594690000000     0.812130000000     0.211650000000     0.0503255  
H202     H      0.551150000000     0.855360000000     0.159790000000     0.0443368  
H203     H      0.663650000000     0.926670000000     0.119570000000     0.0639653  
H204     H      0.775110000000     0.838820000000     0.143560000000     0.188928   
H205     H      0.813700000000     0.592000000000     0.195390000000     0.051925   
H206     H      0.856830000000     0.548740000000     0.143900000000     0.0538985  
H207     H      0.938320000000     0.656210000000     0.113660000000     0.0545647  
H208     H      0.859300000000     0.771540000000     0.143220000000     0.18934    
H209     H      0.851090000000     0.935570000000     0.445660000000     0.0542464  
H210     H      0.811010000000     0.896250000000     0.387990000000     0.0530121  
H211     H      0.897360000000     0.789480000000     0.402600000000     0.0591394  
H212     H      0.962460000000     0.802150000000     0.039190000000     0.196231   
H213     H      0.810210000000     0.590210000000     0.382600000000     0.0531725  
H214     H      0.849280000000     0.550010000000     0.440850000000     0.0502553  
H215     H      0.959970000000     0.631230000000     0.422550000000     0.0522238  
H216     H      0.946520000000     0.694510000000     0.284730000000     0.198682   
H217     H      0.555870000000     0.845130000000     0.439380000000     0.0601791  
H218     H      0.594850000000     0.805220000000     0.380680000000     0.0520337  
H219     H      0.709590000000     0.877900000000     0.408960000000     0.0563648  
H220     H      0.736330000000     0.954610000000     0.988640000000     0.2013     
H221     H      0.954120000000     0.851180000000     0.149990000000     0.0516216  
H222     H      0.914510000000     0.809380000000     0.206150000000     0.0565697  
H223     H      0.809370000000     0.898610000000     0.200450000000     0.0644669  
H224     H      0.796210000000     0.995960000000     0.643250000000     0.191228   
H225     H      0.696150000000     0.591820000000     0.694750000000     0.0514801  
H226     H      0.653460000000     0.547620000000     0.643580000000     0.0494089  
H227     H      0.562310000000     0.649910000000     0.625500000000     0.056595   
H228     H      0.553900000000     0.750990000000     0.676680000000     0.189838   
H229     H      0.560010000000     0.642010000000     0.939730000000     0.0551805  
H230     H      0.598720000000     0.682010000000     0.881750000000     0.0531655  
H231     H      0.709480000000     0.600710000000     0.899050000000     0.0512985  
H232     H      0.696680000000     0.536890000000     0.036800000000     0.192877   
H233     H      0.594690000000     0.812130000000     0.711650000000     0.0503242  
H234     H      0.551150000000     0.855360000000     0.659780000000     0.0443386  
H235     H      0.663650000000     0.926670000000     0.619570000000     0.0639683  
H236     H      0.775110000000     0.838820000000     0.643560000000     0.188934   
H237     H      0.813700000000     0.592000000000     0.695390000000     0.0519278  
H238     H      0.856830000000     0.548740000000     0.643890000000     0.0539015  
H239     H      0.938320000000     0.656210000000     0.613660000000     0.0545724  
H240     H      0.859300000000     0.771540000000     0.643220000000     0.189345   
H241     H      0.851090000000     0.935570000000     0.945660000000     0.0542563  
H242     H      0.811010000000     0.896250000000     0.887990000000     0.0530066  
H243     H      0.897360000000     0.789480000000     0.902600000000     0.0591359  
H244     H      0.962460000000     0.802150000000     0.539190000000     0.196231   
H245     H      0.810210000000     0.590210000000     0.882600000000     0.0531749  
H246     H      0.849280000000     0.550010000000     0.940850000000     0.0502591  
H247     H      0.959970000000     0.631230000000     0.922550000000     0.0522203  
H248     H      0.946520000000     0.694510000000     0.784730000000     0.19868    
H249     H      0.555870000000     0.845130000000     0.939380000000     0.0602032  
H250     H      0.594850000000     0.805220000000     0.880670000000     0.0520344  
H251     H      0.709590000000     0.877900000000     0.908960000000     0.056354   
H252     H      0.736330000000     0.954610000000     0.488650000000     0.201186   
H253     H      0.954120000000     0.851180000000     0.649990000000     0.0516183  
H254     H      0.914510000000     0.809380000000     0.706150000000     0.0565692  
H255     H      0.809370000000     0.898610000000     0.700450000000     0.0644783  
H256     H      0.796210000000     0.995960000000     0.143250000000     0.191288   
N1       N      0.104000000000     0.095100000000     0.131660000000    -0.174517   
N2       N      0.154500000000     0.147480000000     0.190440000000    -0.156852   
N3       N      0.156540000000     0.143360000000     0.384960000000    -0.176662   
N4       N      0.111830000000     0.097100000000     0.453890000000    -0.157507   
N5       N      0.104130000000     0.394930000000     0.136630000000    -0.173729   
N6       N      0.155430000000     0.342690000000     0.194470000000    -0.154746   
N7       N      0.401780000000     0.098820000000     0.126180000000    -0.173731   
N8       N      0.350620000000     0.150220000000     0.185390000000    -0.155305   
N9       N      0.352260000000     0.340480000000     0.389660000000    -0.174907   
N10      N      0.398620000000     0.385930000000     0.458130000000    -0.15729    
N11      N      0.406920000000     0.088810000000     0.437480000000    -0.175959   
N12      N      0.361970000000     0.135130000000     0.368600000000    -0.157552   
N13      N      0.154570000000     0.340130000000     0.388970000000    -0.175905   
N14      N      0.109870000000     0.385530000000     0.458620000000    -0.157201   
N15      N      0.358230000000     0.350140000000     0.206260000000    -0.175792   
N16      N      0.403830000000     0.398620000000     0.139510000000    -0.15824    
N17      N      0.104000000000     0.095100000000     0.631650000000    -0.174544   
N18      N      0.154500000000     0.147480000000     0.690440000000    -0.15685    
N19      N      0.156540000000     0.143360000000     0.884960000000    -0.17665    
N20      N      0.111830000000     0.097100000000     0.953890000000    -0.157495   
N21      N      0.104130000000     0.394930000000     0.636640000000    -0.173702   
N22      N      0.155430000000     0.342690000000     0.694470000000    -0.154745   
N23      N      0.401780000000     0.098820000000     0.626180000000    -0.173729   
N24      N      0.350620000000     0.150220000000     0.685390000000    -0.15531    
N25      N      0.352260000000     0.340480000000     0.889670000000    -0.174881   
N26      N      0.398620000000     0.385930000000     0.958130000000    -0.157294   
N27      N      0.406920000000     0.088810000000     0.937480000000    -0.175975   
N28      N      0.361970000000     0.135130000000     0.868600000000    -0.157551   
N29      N      0.154570000000     0.340130000000     0.888970000000    -0.175922   
N30      N      0.109870000000     0.385530000000     0.958620000000    -0.157191   
N31      N      0.358230000000     0.350140000000     0.706260000000    -0.175783   
N32      N      0.403830000000     0.398620000000     0.639510000000    -0.15824    
N33      N      0.104000000000     0.595100000000     0.131660000000    -0.174525   
N34      N      0.154500000000     0.647480000000     0.190440000000    -0.156848   
N35      N      0.156540000000     0.643360000000     0.384960000000    -0.176659   
N36      N      0.111830000000     0.597100000000     0.453890000000    -0.157509   
N37      N      0.104130000000     0.894930000000     0.136630000000    -0.173777   
N38      N      0.155430000000     0.842690000000     0.194470000000    -0.154745   
N39      N      0.401780000000     0.598820000000     0.126180000000    -0.173737   
N40      N      0.350620000000     0.650220000000     0.185390000000    -0.155301   
N41      N      0.352260000000     0.840480000000     0.389660000000    -0.174887   
N42      N      0.398620000000     0.885930000000     0.458130000000    -0.157296   
N43      N      0.406920000000     0.588810000000     0.437480000000    -0.175963   
N44      N      0.361970000000     0.635120000000     0.368600000000    -0.157497   
N45      N      0.154570000000     0.840130000000     0.388970000000    -0.175908   
N46      N      0.109870000000     0.885530000000     0.458620000000    -0.157228   
N47      N      0.358230000000     0.850140000000     0.206260000000    -0.175796   
N48      N      0.403830000000     0.898620000000     0.139510000000    -0.158241   
N49      N      0.104000000000     0.595100000000     0.631650000000    -0.174552   
N50      N      0.154500000000     0.647480000000     0.690440000000    -0.156845   
N51      N      0.156540000000     0.643360000000     0.884960000000    -0.176648   
N52      N      0.111830000000     0.597100000000     0.953890000000    -0.157497   
N53      N      0.104130000000     0.894930000000     0.636640000000    -0.17375    
N54      N      0.155430000000     0.842690000000     0.694470000000    -0.154745   
N55      N      0.401780000000     0.598820000000     0.626180000000    -0.173735   
N56      N      0.350620000000     0.650220000000     0.685390000000    -0.155305   
N57      N      0.352260000000     0.840480000000     0.889670000000    -0.17486    
N58      N      0.398620000000     0.885930000000     0.958130000000    -0.157301   
N59      N      0.406920000000     0.588810000000     0.937480000000    -0.175979   
N60      N      0.361970000000     0.635120000000     0.868600000000    -0.157497   
N61      N      0.154570000000     0.840130000000     0.888970000000    -0.175925   
N62      N      0.109870000000     0.885530000000     0.958620000000    -0.157218   
N63      N      0.358230000000     0.850140000000     0.706260000000    -0.175788   
N64      N      0.403830000000     0.898620000000     0.639510000000    -0.158241   
N65      N      0.604000000000     0.095100000000     0.131660000000    -0.174515   
N66      N      0.654500000000     0.147480000000     0.190440000000    -0.156852   
N67      N      0.656540000000     0.143360000000     0.384960000000    -0.176678   
N68      N      0.611820000000     0.097100000000     0.453890000000    -0.157527   
N69      N      0.604120000000     0.394930000000     0.136630000000    -0.173728   
N70      N      0.655430000000     0.342690000000     0.194470000000    -0.154746   
N71      N      0.901780000000     0.098820000000     0.126180000000    -0.173711   
N72      N      0.850620000000     0.150220000000     0.185390000000    -0.155299   
N73      N      0.852260000000     0.340480000000     0.389660000000    -0.174906   
N74      N      0.898620000000     0.385930000000     0.458130000000    -0.157285   
N75      N      0.906920000000     0.088810000000     0.437480000000    -0.175969   
N76      N      0.861970000000     0.135130000000     0.368600000000    -0.157554   
N77      N      0.654570000000     0.340130000000     0.388970000000    -0.175905   
N78      N      0.609870000000     0.385530000000     0.458620000000    -0.157197   
N79      N      0.858230000000     0.350140000000     0.206260000000    -0.17579    
N80      N      0.903830000000     0.398620000000     0.139510000000    -0.158235   
N81      N      0.604000000000     0.095100000000     0.631650000000    -0.174542   
N82      N      0.654500000000     0.147480000000     0.690440000000    -0.15685    
N83      N      0.656540000000     0.143360000000     0.884960000000    -0.176667   
N84      N      0.611820000000     0.097100000000     0.953890000000    -0.157515   
N85      N      0.604120000000     0.394930000000     0.636640000000    -0.1737     
N86      N      0.655430000000     0.342690000000     0.694470000000    -0.154746   
N87      N      0.901780000000     0.098820000000     0.626180000000    -0.173709   
N88      N      0.850620000000     0.150220000000     0.685390000000    -0.155303   
N89      N      0.852260000000     0.340480000000     0.889670000000    -0.17488    
N90      N      0.898620000000     0.385930000000     0.958130000000    -0.15729    
N91      N      0.906920000000     0.088810000000     0.937480000000    -0.175985   
N92      N      0.861970000000     0.135130000000     0.868600000000    -0.157553   
N93      N      0.654570000000     0.340130000000     0.888970000000    -0.175921   
N94      N      0.609870000000     0.385530000000     0.958620000000    -0.157187   
N95      N      0.858230000000     0.350140000000     0.706260000000    -0.175781   
N96      N      0.903830000000     0.398620000000     0.639510000000    -0.158235   
N97      N      0.604000000000     0.595100000000     0.131660000000    -0.174522   
N98      N      0.654500000000     0.647480000000     0.190440000000    -0.156848   
N99      N      0.656540000000     0.643360000000     0.384960000000    -0.176676   
N100     N      0.611820000000     0.597100000000     0.453890000000    -0.157529   
N101     N      0.604120000000     0.894930000000     0.136630000000    -0.173776   
N102     N      0.655430000000     0.842690000000     0.194470000000    -0.154746   
N103     N      0.901780000000     0.598820000000     0.126180000000    -0.173717   
N104     N      0.850620000000     0.650220000000     0.185390000000    -0.155294   
N105     N      0.852260000000     0.840480000000     0.389660000000    -0.174886   
N106     N      0.898620000000     0.885930000000     0.458130000000    -0.157292   
N107     N      0.906920000000     0.588810000000     0.437480000000    -0.175973   
N108     N      0.861970000000     0.635120000000     0.368600000000    -0.157499   
N109     N      0.654570000000     0.840130000000     0.388970000000    -0.175907   
N110     N      0.609870000000     0.885530000000     0.458620000000    -0.157224   
N111     N      0.858230000000     0.850140000000     0.206260000000    -0.175795   
N112     N      0.903830000000     0.898620000000     0.139510000000    -0.158236   
N113     N      0.604000000000     0.595100000000     0.631650000000    -0.174549   
N114     N      0.654500000000     0.647480000000     0.690440000000    -0.156845   
N115     N      0.656540000000     0.643360000000     0.884960000000    -0.176664   
N116     N      0.611820000000     0.597100000000     0.953890000000    -0.157517   
N117     N      0.604120000000     0.894930000000     0.636640000000    -0.173748   
N118     N      0.655430000000     0.842690000000     0.694470000000    -0.154745   
N119     N      0.901780000000     0.598820000000     0.626180000000    -0.173715   
N120     N      0.850620000000     0.650220000000     0.685390000000    -0.155299   
N121     N      0.852260000000     0.840480000000     0.889670000000    -0.174859   
N122     N      0.898620000000     0.885930000000     0.958130000000    -0.157296   
N123     N      0.906920000000     0.588810000000     0.937480000000    -0.175989   
N124     N      0.861970000000     0.635120000000     0.868600000000    -0.157499   
N125     N      0.654570000000     0.840130000000     0.888970000000    -0.175924   
N126     N      0.609870000000     0.885530000000     0.958620000000    -0.157214   
N127     N      0.858230000000     0.850140000000     0.706260000000    -0.175786   
N128     N      0.903830000000     0.898620000000     0.639510000000    -0.158236   
O1       O      0.461480000000     0.399600000000     0.499280000000    -0.348741   
O2       O      0.049650000000     0.087380000000     0.497120000000    -0.354817   
O3       O      0.412050000000     0.033190000000     0.490410000000    -0.357147   
O4       O      0.098880000000     0.448420000000     0.499410000000    -0.34217    
O5       O      0.465610000000     0.081270000000     0.486150000000    -0.360909   
O6       O      0.047220000000     0.398330000000     0.500560000000    -0.353166   
O7       O      0.098870000000     0.035070000000     0.495940000000    -0.34515    
O8       O      0.408730000000     0.448440000000     0.500180000000    -0.350394   
O9       O      0.041610000000     0.406080000000     0.094500000000    -0.364555   
O10      O      0.462120000000     0.088120000000     0.080070000000    -0.361485   
O11      O      0.414720000000     0.457640000000     0.091880000000    -0.352921   
O12      O      0.094720000000     0.033480000000     0.088330000000    -0.360871   
O13      O      0.044130000000     0.084720000000     0.085100000000    -0.36345    
O14      O      0.463150000000     0.404650000000     0.090870000000    -0.357204   
O15      O      0.096350000000     0.452500000000     0.087030000000    -0.354098   
O16      O      0.412960000000     0.035740000000     0.085910000000    -0.359265   
O17      O      0.504240000000     0.492900000000     0.520510000000    -0.594168   
O18      O      0.295980000000     0.336860000000     0.248090000000    -0.357998   
O19      O      0.214580000000     0.155240000000     0.237790000000    -0.363936   
O20      O      0.343080000000     0.207540000000     0.236310000000    -0.348976   
O21      O      0.161980000000     0.284680000000     0.243910000000    -0.353996   
O22      O      0.292640000000     0.156210000000     0.235800000000    -0.360685   
O23      O      0.215730000000     0.332530000000     0.241070000000    -0.357385   
O24      O      0.162690000000     0.204960000000     0.240790000000    -0.352243   
O25      O      0.349040000000     0.288020000000     0.248890000000    -0.355705   
O26      O      0.214190000000     0.331740000000     0.341720000000    -0.35954    
O27      O      0.299020000000     0.147280000000     0.326870000000    -0.354963   
O28      O      0.344210000000     0.282250000000     0.340840000000    -0.35319    
O29      O      0.161570000000     0.200770000000     0.334900000000    -0.359763   
O30      O      0.215700000000     0.153140000000     0.337220000000    -0.363316   
O31      O      0.294890000000     0.334740000000     0.338770000000    -0.353139   
O32      O      0.159920000000     0.284550000000     0.336180000000    -0.356062   
O33      O      0.349480000000     0.198440000000     0.329050000000    -0.347074   
O34      O      0.254070000000     0.242850000000     0.308710000000    -0.592037   
O35      O      0.063150000000     0.221200000000     0.177670000000    -0.324119   
O36      O      0.132080000000     0.237320000000     0.160570000000    -0.214602   
O37      O      0.179240000000     0.056350000000     0.518090000000    -0.313836   
O38      O      0.206600000000     0.031890000000     0.450980000000    -0.226222   
O39      O      0.244650000000     0.338770000000     0.152210000000    -0.318418   
O40      O      0.239910000000     0.410420000000     0.151450000000    -0.229117   
O41      O      0.356220000000     0.240990000000     0.149000000000    -0.322963   
O42      O      0.427740000000     0.230730000000     0.156640000000    -0.234548   
O43      O      0.441870000000     0.318770000000     0.520970000000    -0.313033   
O44      O      0.469160000000     0.296120000000     0.453020000000    -0.223335   
O45      O      0.429370000000     0.175020000000     0.303700000000    -0.3147     
O46      O      0.456120000000     0.200820000000     0.370550000000    -0.223119   
O47      O      0.216820000000     0.439430000000     0.467750000000    -0.322362   
O48      O      0.174550000000     0.417080000000     0.526080000000    -0.215129   
O49      O      0.315160000000     0.474600000000     0.157200000000    -0.324561   
O50      O      0.331160000000     0.444810000000     0.088390000000    -0.209925   
O51      O      0.461480000000     0.399600000000     0.999280000000    -0.348706   
O52      O      0.049650000000     0.087380000000     0.997120000000    -0.354768   
O53      O      0.412050000000     0.033190000000     0.990420000000    -0.357028   
O54      O      0.098880000000     0.448420000000     0.999410000000    -0.342134   
O55      O      0.465610000000     0.081270000000     0.986160000000    -0.360811   
O56      O      0.047220000000     0.398330000000     0.000560000000    -0.353262   
O57      O      0.098870000000     0.035070000000     0.995940000000    -0.345093   
O58      O      0.408730000000     0.448440000000     0.000180000000    -0.350499   
O59      O      0.041610000000     0.406080000000     0.594500000000    -0.364554   
O60      O      0.462120000000     0.088120000000     0.580070000000    -0.36148    
O61      O      0.414720000000     0.457640000000     0.591880000000    -0.352913   
O62      O      0.094720000000     0.033480000000     0.588330000000    -0.360885   
O63      O      0.044130000000     0.084720000000     0.585100000000    -0.363458   
O64      O      0.463150000000     0.404650000000     0.590860000000    -0.357203   
O65      O      0.096350000000     0.452500000000     0.587030000000    -0.354089   
O66      O      0.412960000000     0.035740000000     0.585900000000    -0.359282   
O67      O      0.504240000000     0.492900000000     0.020510000000    -0.594173   
O68      O      0.295980000000     0.336860000000     0.748090000000    -0.357998   
O69      O      0.214580000000     0.155240000000     0.737790000000    -0.363929   
O70      O      0.343080000000     0.207540000000     0.736310000000    -0.348991   
O71      O      0.161980000000     0.284680000000     0.743910000000    -0.353994   
O72      O      0.292640000000     0.156210000000     0.735790000000    -0.360679   
O73      O      0.215730000000     0.332530000000     0.741070000000    -0.357385   
O74      O      0.162690000000     0.204960000000     0.740790000000    -0.352239   
O75      O      0.349040000000     0.288020000000     0.748890000000    -0.355705   
O76      O      0.214190000000     0.331740000000     0.841720000000    -0.359541   
O77      O      0.299020000000     0.147280000000     0.826870000000    -0.354966   
O78      O      0.344210000000     0.282250000000     0.840840000000    -0.353176   
O79      O      0.161570000000     0.200770000000     0.834900000000    -0.359761   
O80      O      0.215700000000     0.153140000000     0.837220000000    -0.363308   
O81      O      0.294890000000     0.334740000000     0.838770000000    -0.353124   
O82      O      0.159920000000     0.284550000000     0.836180000000    -0.356064   
O83      O      0.349480000000     0.198440000000     0.829050000000    -0.347074   
O84      O      0.254070000000     0.242850000000     0.808710000000    -0.592031   
O85      O      0.063150000000     0.221200000000     0.677670000000    -0.324131   
O86      O      0.132080000000     0.237320000000     0.660580000000    -0.214611   
O87      O      0.179240000000     0.056350000000     0.018090000000    -0.313933   
O88      O      0.206600000000     0.031890000000     0.950980000000    -0.226235   
O89      O      0.244650000000     0.338770000000     0.652210000000    -0.318413   
O90      O      0.239910000000     0.410420000000     0.651450000000    -0.229112   
O91      O      0.356220000000     0.240990000000     0.649000000000    -0.322956   
O92      O      0.427740000000     0.230730000000     0.656640000000    -0.234544   
O93      O      0.441870000000     0.318770000000     0.020970000000    -0.313128   
O94      O      0.469160000000     0.296120000000     0.953020000000    -0.223341   
O95      O      0.429370000000     0.175020000000     0.803700000000    -0.314702   
O96      O      0.456120000000     0.200820000000     0.870550000000    -0.223115   
O97      O      0.216820000000     0.439430000000     0.967750000000    -0.322487   
O98      O      0.174550000000     0.417080000000     0.026080000000    -0.215251   
O99      O      0.315160000000     0.474600000000     0.657210000000    -0.32446    
O100     O      0.331160000000     0.444810000000     0.588390000000    -0.209799   
O101     O      0.461480000000     0.899600000000     0.499280000000    -0.348743   
O102     O      0.049650000000     0.587380000000     0.497120000000    -0.354817   
O103     O      0.412050000000     0.533190000000     0.490410000000    -0.357203   
O104     O      0.098880000000     0.948410000000     0.499410000000    -0.342246   
O105     O      0.465610000000     0.581270000000     0.486150000000    -0.360911   
O106     O      0.047220000000     0.898330000000     0.500560000000    -0.353206   
O107     O      0.098870000000     0.535070000000     0.495940000000    -0.345201   
O108     O      0.408730000000     0.948440000000     0.500180000000    -0.350398   
O109     O      0.041610000000     0.906080000000     0.094500000000    -0.364576   
O110     O      0.462120000000     0.588120000000     0.080070000000    -0.361485   
O111     O      0.414720000000     0.957640000000     0.091880000000    -0.352928   
O112     O      0.094720000000     0.533480000000     0.088330000000    -0.36093    
O113     O      0.044130000000     0.584720000000     0.085100000000    -0.363453   
O114     O      0.463150000000     0.904650000000     0.090870000000    -0.357205   
O115     O      0.096350000000     0.952500000000     0.087030000000    -0.35403    
O116     O      0.412960000000     0.535740000000     0.085910000000    -0.359323   
O117     O      0.504240000000     0.992900000000     0.520510000000    -0.59419    
O118     O      0.295980000000     0.836860000000     0.248090000000    -0.35805    
O119     O      0.214580000000     0.655240000000     0.237790000000    -0.363894   
O120     O      0.343080000000     0.707540000000     0.236310000000    -0.348975   
O121     O      0.161980000000     0.784680000000     0.243910000000    -0.354001   
O122     O      0.292640000000     0.656210000000     0.235800000000    -0.360646   
O123     O      0.215730000000     0.832530000000     0.241070000000    -0.357431   
O124     O      0.162690000000     0.704960000000     0.240790000000    -0.352238   
O125     O      0.349040000000     0.788020000000     0.248890000000    -0.355713   
O126     O      0.214190000000     0.831740000000     0.341720000000    -0.359586   
O127     O      0.299020000000     0.647280000000     0.326870000000    -0.354863   
O128     O      0.344210000000     0.782250000000     0.340840000000    -0.353192   
O129     O      0.161570000000     0.700770000000     0.334900000000    -0.359757   
O130     O      0.215700000000     0.653140000000     0.337220000000    -0.363273   
O131     O      0.294890000000     0.834740000000     0.338770000000    -0.353185   
O132     O      0.159920000000     0.784550000000     0.336180000000    -0.356068   
O133     O      0.349480000000     0.698450000000     0.329050000000    -0.346988   
O134     O      0.254070000000     0.742850000000     0.308710000000    -0.592036   
O135     O      0.063150000000     0.721200000000     0.177670000000    -0.32412    
O136     O      0.132080000000     0.737320000000     0.160570000000    -0.214601   
O137     O      0.179240000000     0.556350000000     0.518090000000    -0.313839   
O138     O      0.206600000000     0.531890000000     0.450980000000    -0.226249   
O139     O      0.244650000000     0.838770000000     0.152210000000    -0.318418   
O140     O      0.239910000000     0.910420000000     0.151450000000    -0.229128   
O141     O      0.356220000000     0.740990000000     0.149000000000    -0.322963   
O142     O      0.427740000000     0.730730000000     0.156640000000    -0.23455    
O143     O      0.441870000000     0.818770000000     0.520970000000    -0.313031   
O144     O      0.469160000000     0.796120000000     0.453020000000    -0.223335   
O145     O      0.429370000000     0.675020000000     0.303700000000    -0.314708   
O146     O      0.456120000000     0.700820000000     0.370550000000    -0.223122   
O147     O      0.216820000000     0.939430000000     0.467750000000    -0.3223     
O148     O      0.174550000000     0.917080000000     0.526080000000    -0.215124   
O149     O      0.315160000000     0.974600000000     0.157200000000    -0.324578   
O150     O      0.331160000000     0.944810000000     0.088390000000    -0.209936   
O151     O      0.461480000000     0.899600000000     0.999280000000    -0.348708   
O152     O      0.049650000000     0.587380000000     0.997120000000    -0.354767   
O153     O      0.412050000000     0.533190000000     0.990420000000    -0.357084   
O154     O      0.098880000000     0.948410000000     0.999410000000    -0.342211   
O155     O      0.465610000000     0.581270000000     0.986160000000    -0.360813   
O156     O      0.047220000000     0.898330000000     0.000560000000    -0.353302   
O157     O      0.098870000000     0.535070000000     0.995940000000    -0.345144   
O158     O      0.408730000000     0.948440000000     0.000180000000    -0.350503   
O159     O      0.041610000000     0.906080000000     0.594500000000    -0.364575   
O160     O      0.462120000000     0.588120000000     0.580070000000    -0.36148    
O161     O      0.414720000000     0.957640000000     0.591880000000    -0.35292    
O162     O      0.094720000000     0.533480000000     0.588330000000    -0.360943   
O163     O      0.044130000000     0.584720000000     0.585100000000    -0.36346    
O164     O      0.463150000000     0.904650000000     0.590860000000    -0.357204   
O165     O      0.096350000000     0.952500000000     0.587030000000    -0.35402    
O166     O      0.412960000000     0.535740000000     0.585900000000    -0.359341   
O167     O      0.504240000000     0.992900000000     0.020510000000    -0.594195   
O168     O      0.295980000000     0.836860000000     0.748090000000    -0.358049   
O169     O      0.214580000000     0.655240000000     0.737790000000    -0.363888   
O170     O      0.343080000000     0.707540000000     0.736310000000    -0.34899    
O171     O      0.161980000000     0.784680000000     0.743910000000    -0.354      
O172     O      0.292640000000     0.656210000000     0.735790000000    -0.360641   
O173     O      0.215730000000     0.832530000000     0.741070000000    -0.357431   
O174     O      0.162690000000     0.704960000000     0.740790000000    -0.352234   
O175     O      0.349040000000     0.788020000000     0.748890000000    -0.355713   
O176     O      0.214190000000     0.831740000000     0.841720000000    -0.359588   
O177     O      0.299020000000     0.647280000000     0.826870000000    -0.354866   
O178     O      0.344210000000     0.782250000000     0.840840000000    -0.353177   
O179     O      0.161570000000     0.700770000000     0.834900000000    -0.359756   
O180     O      0.215700000000     0.653140000000     0.837220000000    -0.363264   
O181     O      0.294890000000     0.834740000000     0.838770000000    -0.35317    
O182     O      0.159920000000     0.784550000000     0.836180000000    -0.35607    
O183     O      0.349480000000     0.698450000000     0.829050000000    -0.346988   
O184     O      0.254070000000     0.742850000000     0.808710000000    -0.592029   
O185     O      0.063150000000     0.721200000000     0.677670000000    -0.324132   
O186     O      0.132080000000     0.737320000000     0.660580000000    -0.21461    
O187     O      0.179240000000     0.556350000000     0.018090000000    -0.313936   
O188     O      0.206600000000     0.531890000000     0.950980000000    -0.226263   
O189     O      0.244650000000     0.838770000000     0.652210000000    -0.318413   
O190     O      0.239910000000     0.910420000000     0.651450000000    -0.229124   
O191     O      0.356220000000     0.740990000000     0.649000000000    -0.322956   
O192     O      0.427740000000     0.730730000000     0.656640000000    -0.234546   
O193     O      0.441870000000     0.818770000000     0.020970000000    -0.313127   
O194     O      0.469160000000     0.796120000000     0.953020000000    -0.22334    
O195     O      0.429370000000     0.675020000000     0.803700000000    -0.31471    
O196     O      0.456120000000     0.700820000000     0.870550000000    -0.223117   
O197     O      0.216820000000     0.939430000000     0.967750000000    -0.322425   
O198     O      0.174550000000     0.917080000000     0.026080000000    -0.215245   
O199     O      0.315160000000     0.974600000000     0.657210000000    -0.324477   
O200     O      0.331160000000     0.944810000000     0.588390000000    -0.20981    
O201     O      0.961480000000     0.399600000000     0.499280000000    -0.348667   
O202     O      0.549650000000     0.087380000000     0.497120000000    -0.354861   
O203     O      0.912050000000     0.033190000000     0.490410000000    -0.357142   
O204     O      0.598880000000     0.448420000000     0.499410000000    -0.342154   
O205     O      0.965610000000     0.081270000000     0.486150000000    -0.360871   
O206     O      0.547220000000     0.398330000000     0.500560000000    -0.353155   
O207     O      0.598870000000     0.035070000000     0.495940000000    -0.345153   
O208     O      0.908730000000     0.448440000000     0.500180000000    -0.350379   
O209     O      0.541610000000     0.406080000000     0.094500000000    -0.364527   
O210     O      0.962120000000     0.088120000000     0.080070000000    -0.361447   
O211     O      0.914720000000     0.457640000000     0.091880000000    -0.352895   
O212     O      0.594720000000     0.033480000000     0.088330000000    -0.360862   
O213     O      0.544130000000     0.084720000000     0.085100000000    -0.363476   
O214     O      0.963150000000     0.404650000000     0.090870000000    -0.35713    
O215     O      0.596360000000     0.452500000000     0.087030000000    -0.354003   
O216     O      0.912960000000     0.035740000000     0.085910000000    -0.359251   
O217     O      0.004250000000     0.492900000000     0.520510000000    -0.594203   
O218     O      0.795980000000     0.336860000000     0.248090000000    -0.357998   
O219     O      0.714580000000     0.155240000000     0.237790000000    -0.363936   
O220     O      0.843080000000     0.207540000000     0.236310000000    -0.348971   
O221     O      0.661980000000     0.284680000000     0.243910000000    -0.353993   
O222     O      0.792640000000     0.156210000000     0.235800000000    -0.360685   
O223     O      0.715730000000     0.332530000000     0.241070000000    -0.357385   
O224     O      0.662690000000     0.204960000000     0.240790000000    -0.352239   
O225     O      0.849040000000     0.288020000000     0.248890000000    -0.355701   
O226     O      0.714190000000     0.331740000000     0.341720000000    -0.35954    
O227     O      0.799020000000     0.147280000000     0.326870000000    -0.354964   
O228     O      0.844210000000     0.282250000000     0.340840000000    -0.353188   
O229     O      0.661570000000     0.200770000000     0.334900000000    -0.35976    
O230     O      0.715700000000     0.153140000000     0.337220000000    -0.363317   
O231     O      0.794890000000     0.334740000000     0.338770000000    -0.353139   
O232     O      0.659920000000     0.284550000000     0.336180000000    -0.356058   
O233     O      0.849480000000     0.198440000000     0.329050000000    -0.347068   
O234     O      0.754070000000     0.242850000000     0.308710000000    -0.592039   
O235     O      0.563150000000     0.221200000000     0.177670000000    -0.324097   
O236     O      0.632080000000     0.237320000000     0.160570000000    -0.214599   
O237     O      0.679240000000     0.056350000000     0.518090000000    -0.313815   
O238     O      0.706610000000     0.031890000000     0.450980000000    -0.226163   
O239     O      0.744650000000     0.338770000000     0.152210000000    -0.318418   
O240     O      0.739910000000     0.410420000000     0.151450000000    -0.229124   
O241     O      0.856220000000     0.240990000000     0.149000000000    -0.322945   
O242     O      0.927740000000     0.230730000000     0.156640000000    -0.234526   
O243     O      0.941870000000     0.318770000000     0.520970000000    -0.313029   
O244     O      0.969160000000     0.296120000000     0.453020000000    -0.223294   
O245     O      0.929360000000     0.175020000000     0.303700000000    -0.314593   
O246     O      0.956120000000     0.200820000000     0.370550000000    -0.223081   
O247     O      0.716820000000     0.439430000000     0.467750000000    -0.322363   
O248     O      0.674550000000     0.417080000000     0.526080000000    -0.215127   
O249     O      0.815170000000     0.474600000000     0.157200000000    -0.324525   
O250     O      0.831170000000     0.444810000000     0.088390000000    -0.209948   
O251     O      0.961480000000     0.399600000000     0.999280000000    -0.348633   
O252     O      0.549650000000     0.087380000000     0.997120000000    -0.354811   
O253     O      0.912050000000     0.033190000000     0.990420000000    -0.357023   
O254     O      0.598880000000     0.448420000000     0.999410000000    -0.342118   
O255     O      0.965610000000     0.081270000000     0.986160000000    -0.360773   
O256     O      0.547220000000     0.398330000000     0.000560000000    -0.353251   
O257     O      0.598870000000     0.035070000000     0.995940000000    -0.345096   
O258     O      0.908730000000     0.448440000000     0.000180000000    -0.350484   
O259     O      0.541610000000     0.406080000000     0.594500000000    -0.364526   
O260     O      0.962120000000     0.088120000000     0.580070000000    -0.361443   
O261     O      0.914720000000     0.457640000000     0.591880000000    -0.352887   
O262     O      0.594720000000     0.033480000000     0.588330000000    -0.360875   
O263     O      0.544130000000     0.084720000000     0.585100000000    -0.363484   
O264     O      0.963150000000     0.404650000000     0.590860000000    -0.357129   
O265     O      0.596360000000     0.452500000000     0.587030000000    -0.353993   
O266     O      0.912960000000     0.035740000000     0.585900000000    -0.359269   
O267     O      0.004250000000     0.492900000000     0.020510000000    -0.594208   
O268     O      0.795980000000     0.336860000000     0.748090000000    -0.357998   
O269     O      0.714580000000     0.155240000000     0.737790000000    -0.363929   
O270     O      0.843080000000     0.207540000000     0.736310000000    -0.348986   
O271     O      0.661980000000     0.284680000000     0.743910000000    -0.353992   
O272     O      0.792640000000     0.156210000000     0.735790000000    -0.360679   
O273     O      0.715730000000     0.332530000000     0.741070000000    -0.357385   
O274     O      0.662690000000     0.204960000000     0.740790000000    -0.352236   
O275     O      0.849040000000     0.288020000000     0.748890000000    -0.355701   
O276     O      0.714190000000     0.331740000000     0.841720000000    -0.359541   
O277     O      0.799020000000     0.147280000000     0.826870000000    -0.354966   
O278     O      0.844210000000     0.282250000000     0.840840000000    -0.353173   
O279     O      0.661570000000     0.200770000000     0.834900000000    -0.359758   
O280     O      0.715700000000     0.153140000000     0.837220000000    -0.363309   
O281     O      0.794890000000     0.334740000000     0.838770000000    -0.353124   
O282     O      0.659920000000     0.284550000000     0.836180000000    -0.35606    
O283     O      0.849480000000     0.198440000000     0.829050000000    -0.347068   
O284     O      0.754070000000     0.242850000000     0.808710000000    -0.592032   
O285     O      0.563150000000     0.221200000000     0.677670000000    -0.324109   
O286     O      0.632080000000     0.237320000000     0.660580000000    -0.214607   
O287     O      0.679240000000     0.056350000000     0.018090000000    -0.313912   
O288     O      0.706610000000     0.031890000000     0.950980000000    -0.226176   
O289     O      0.744650000000     0.338770000000     0.652210000000    -0.318413   
O290     O      0.739910000000     0.410420000000     0.651450000000    -0.229119   
O291     O      0.856220000000     0.240990000000     0.649000000000    -0.322938   
O292     O      0.927740000000     0.230730000000     0.656640000000    -0.234522   
O293     O      0.941870000000     0.318770000000     0.020970000000    -0.313124   
O294     O      0.969160000000     0.296120000000     0.953020000000    -0.2233     
O295     O      0.929360000000     0.175020000000     0.803700000000    -0.314595   
O296     O      0.956120000000     0.200820000000     0.870550000000    -0.223076   
O297     O      0.716820000000     0.439430000000     0.967750000000    -0.322488   
O298     O      0.674550000000     0.417080000000     0.026080000000    -0.215248   
O299     O      0.815170000000     0.474600000000     0.657210000000    -0.324425   
O300     O      0.831170000000     0.444810000000     0.588390000000    -0.209822   
O301     O      0.961480000000     0.899600000000     0.499280000000    -0.34867    
O302     O      0.549650000000     0.587380000000     0.497120000000    -0.35486    
O303     O      0.912050000000     0.533190000000     0.490410000000    -0.357197   
O304     O      0.598880000000     0.948410000000     0.499410000000    -0.34223    
O305     O      0.965610000000     0.581270000000     0.486150000000    -0.360873   
O306     O      0.547220000000     0.898330000000     0.500560000000    -0.353195   
O307     O      0.598870000000     0.535070000000     0.495940000000    -0.345203   
O308     O      0.908730000000     0.948440000000     0.500180000000    -0.350383   
O309     O      0.541610000000     0.906080000000     0.094500000000    -0.364549   
O310     O      0.962120000000     0.588120000000     0.080070000000    -0.361447   
O311     O      0.914720000000     0.957640000000     0.091880000000    -0.352902   
O312     O      0.594720000000     0.533480000000     0.088330000000    -0.360921   
O313     O      0.544130000000     0.584720000000     0.085100000000    -0.363479   
O314     O      0.963150000000     0.904650000000     0.090870000000    -0.357131   
O315     O      0.596360000000     0.952500000000     0.087030000000    -0.353934   
O316     O      0.912960000000     0.535740000000     0.085910000000    -0.359309   
O317     O      0.004250000000     0.992900000000     0.520510000000    -0.594225   
O318     O      0.795980000000     0.836860000000     0.248090000000    -0.358049   
O319     O      0.714580000000     0.655240000000     0.237790000000    -0.363894   
O320     O      0.843080000000     0.707540000000     0.236310000000    -0.348969   
O321     O      0.661980000000     0.784680000000     0.243910000000    -0.353999   
O322     O      0.792640000000     0.656210000000     0.235800000000    -0.360646   
O323     O      0.715730000000     0.832530000000     0.241070000000    -0.357431   
O324     O      0.662690000000     0.704960000000     0.240790000000    -0.352234   
O325     O      0.849040000000     0.788020000000     0.248890000000    -0.355709   
O326     O      0.714190000000     0.831740000000     0.341720000000    -0.359586   
O327     O      0.799020000000     0.647280000000     0.326870000000    -0.354864   
O328     O      0.844210000000     0.782250000000     0.340840000000    -0.353189   
O329     O      0.661570000000     0.700770000000     0.334900000000    -0.359754   
O330     O      0.715700000000     0.653140000000     0.337220000000    -0.363274   
O331     O      0.794890000000     0.834740000000     0.338770000000    -0.353185   
O332     O      0.659920000000     0.784550000000     0.336180000000    -0.356063   
O333     O      0.849480000000     0.698450000000     0.329050000000    -0.346982   
O334     O      0.754070000000     0.742850000000     0.308710000000    -0.592037   
O335     O      0.563150000000     0.721200000000     0.177670000000    -0.324098   
O336     O      0.632080000000     0.737320000000     0.160570000000    -0.214598   
O337     O      0.679240000000     0.556350000000     0.518090000000    -0.313818   
O338     O      0.706610000000     0.531890000000     0.450980000000    -0.22619    
O339     O      0.744650000000     0.838770000000     0.152210000000    -0.318418   
O340     O      0.739910000000     0.910420000000     0.151450000000    -0.229135   
O341     O      0.856220000000     0.740990000000     0.149000000000    -0.322945   
O342     O      0.927740000000     0.730730000000     0.156640000000    -0.234528   
O343     O      0.941870000000     0.818770000000     0.520970000000    -0.313027   
O344     O      0.969160000000     0.796120000000     0.453020000000    -0.223294   
O345     O      0.929360000000     0.675020000000     0.303700000000    -0.314601   
O346     O      0.956120000000     0.700820000000     0.370550000000    -0.223083   
O347     O      0.716820000000     0.939430000000     0.467750000000    -0.322301   
O348     O      0.674550000000     0.917080000000     0.526080000000    -0.215121   
O349     O      0.815170000000     0.974600000000     0.157200000000    -0.324542   
O350     O      0.831170000000     0.944810000000     0.088390000000    -0.209959   
O351     O      0.961480000000     0.899600000000     0.999280000000    -0.348635   
O352     O      0.549650000000     0.587380000000     0.997120000000    -0.354811   
O353     O      0.912050000000     0.533190000000     0.990420000000    -0.357078   
O354     O      0.598880000000     0.948410000000     0.999410000000    -0.342194   
O355     O      0.965610000000     0.581270000000     0.986160000000    -0.360775   
O356     O      0.547220000000     0.898330000000     0.000560000000    -0.353291   
O357     O      0.598870000000     0.535070000000     0.995940000000    -0.345147   
O358     O      0.908730000000     0.948440000000     0.000180000000    -0.350488   
O359     O      0.541610000000     0.906080000000     0.594500000000    -0.364547   
O360     O      0.962120000000     0.588120000000     0.580070000000    -0.361442   
O361     O      0.914720000000     0.957640000000     0.591880000000    -0.352894   
O362     O      0.594720000000     0.533480000000     0.588330000000    -0.360934   
O363     O      0.544130000000     0.584720000000     0.585100000000    -0.363486   
O364     O      0.963150000000     0.904650000000     0.590860000000    -0.35713    
O365     O      0.596360000000     0.952500000000     0.587030000000    -0.353924   
O366     O      0.912960000000     0.535740000000     0.585900000000    -0.359327   
O367     O      0.004250000000     0.992900000000     0.020510000000    -0.59423    
O368     O      0.795980000000     0.836860000000     0.748090000000    -0.358049   
O369     O      0.714580000000     0.655240000000     0.737790000000    -0.363888   
O370     O      0.843080000000     0.707540000000     0.736310000000    -0.348984   
O371     O      0.661980000000     0.784680000000     0.743910000000    -0.353997   
O372     O      0.792640000000     0.656210000000     0.735790000000    -0.360641   
O373     O      0.715730000000     0.832530000000     0.741070000000    -0.357432   
O374     O      0.662690000000     0.704960000000     0.740790000000    -0.352231   
O375     O      0.849040000000     0.788020000000     0.748890000000    -0.355709   
O376     O      0.714190000000     0.831740000000     0.841720000000    -0.359588   
O377     O      0.799020000000     0.647280000000     0.826870000000    -0.354867   
O378     O      0.844210000000     0.782250000000     0.840840000000    -0.353174   
O379     O      0.661570000000     0.700770000000     0.834900000000    -0.359752   
O380     O      0.715700000000     0.653140000000     0.837220000000    -0.363265   
O381     O      0.794890000000     0.834740000000     0.838770000000    -0.35317    
O382     O      0.659920000000     0.784550000000     0.836180000000    -0.356065   
O383     O      0.849480000000     0.698450000000     0.829050000000    -0.346982   
O384     O      0.754070000000     0.742850000000     0.808710000000    -0.59203    
O385     O      0.563150000000     0.721200000000     0.677670000000    -0.32411    
O386     O      0.632080000000     0.737320000000     0.660580000000    -0.214606   
O387     O      0.679240000000     0.556350000000     0.018090000000    -0.313915   
O388     O      0.706610000000     0.531890000000     0.950980000000    -0.226203   
O389     O      0.744650000000     0.838770000000     0.652210000000    -0.318412   
O390     O      0.739910000000     0.910420000000     0.651450000000    -0.22913    
O391     O      0.856220000000     0.740990000000     0.649000000000    -0.322938   
O392     O      0.927740000000     0.730730000000     0.656640000000    -0.234524   
O393     O      0.941870000000     0.818770000000     0.020970000000    -0.313122   
O394     O      0.969160000000     0.796120000000     0.953020000000    -0.223299   
O395     O      0.929360000000     0.675020000000     0.803700000000    -0.314604   
O396     O      0.956120000000     0.700820000000     0.870550000000    -0.223079   
O397     O      0.716820000000     0.939430000000     0.967750000000    -0.322426   
O398     O      0.674550000000     0.917080000000     0.026080000000    -0.215243   
O399     O      0.815170000000     0.974600000000     0.657210000000    -0.324442   
O400     O      0.831170000000     0.944810000000     0.588390000000    -0.209833   


