data_structure

_audit_creation_method RASPA-1.0
_audit_creation_date 2023-6-4
_audit_author_name 'Poobodin Mano'

_cell_length_a    39.9094
_cell_length_b    39.6399
_cell_length_c    40.9035
_cell_angle_alpha 87.1418
_cell_angle_beta  93.8106
_cell_angle_gamma 120.436
_cell_volume      55659.1

_symmetry_cell_setting          triclinic
_symmetry_space_group_name_Hall 'P 1'
_symmetry_space_group_name_H-M  'P 1'
_symmetry_Int_Tables_number     1

_symmetry_equiv_pos_as_xyz 'x,y,z'

loop_
_atom_site_label
_atom_site_type_symbol
_atom_site_fract_x
_atom_site_fract_y
_atom_site_fract_z
_atom_site_charge
C1       C      0.030520000000     0.135690000000     0.993520000000     0.454055   
C2       C      0.954900000000     0.954290000000     0.022620000000     0.481561   
C3       C      0.012960000000     0.047420000000     0.950910000000     0.479838   
C4       C      0.931910000000     0.039590000000     0.059190000000     0.476698   
C5       C      0.017390000000     0.069940000000     0.113320000000     0.48042    
C6       C      0.086910000000     0.028280000000     0.983640000000     0.409191   
C7       C      0.092840000000     0.132220000000     0.058190000000     0.457844   
C8       C      0.046410000000     0.989920000000     0.063800000000     0.479348   
C9       C      0.034820000000     0.035350000000     0.450630000000     0.470751   
C10      C      0.050070000000     0.106190000000     0.562410000000     0.48128    
C11      C      0.943990000000     0.002370000000     0.498230000000     0.435733   
C12      C      0.130970000000     0.090480000000     0.521480000000     0.519484   
C13      C      0.101990000000     0.993640000000     0.553720000000     0.496308   
C14      C      0.961280000000     0.944400000000     0.559170000000     0.463992   
C15      C      0.001000000000     0.933620000000     0.469170000000     0.444487   
C16      C      0.019230000000     0.017300000000     0.613230000000     0.470588   
C17      C      0.959150000000     0.495160000000     0.967830000000     0.454206   
C18      C      0.036100000000     0.647070000000     0.985440000000     0.492882   
C19      C      0.928190000000     0.537610000000     0.040090000000     0.423971   
C20      C      0.052590000000     0.558240000000     0.936530000000     0.47785    
C21      C      0.116920000000     0.559530000000     0.008270000000     0.506466   
C22      C      0.013010000000     0.551810000000     0.091550000000     0.487784   
C23      C      0.988040000000     0.462170000000     0.039740000000     0.439198   
C24      C      0.104720000000     0.647510000000     0.046340000000     0.502473   
C25      C      0.987190000000     0.433940000000     0.507830000000     0.480211   
C26      C      0.052190000000     0.622550000000     0.501860000000     0.390789   
C27      C      0.975350000000     0.503790000000     0.526950000000     0.470479   
C28      C      0.055350000000     0.548170000000     0.434100000000     0.500522   
C29      C      0.133810000000     0.535260000000     0.473490000000     0.498751   
C30      C      0.047390000000     0.544710000000     0.592780000000     0.448522   
C31      C      0.085330000000     0.463020000000     0.532890000000     0.467431   
C32      C      0.126600000000     0.616240000000     0.552940000000     0.49532    
C33      C      0.450920000000     0.072430000000     0.017280000000     0.470243   
C34      C      0.526190000000     0.992130000000     0.032250000000     0.467148   
C35      C      0.521160000000     0.093800000000     0.960060000000     0.472647   
C36      C      0.446270000000     0.999460000000     0.087410000000     0.378453   
C37      C      0.531130000000     0.048890000000     0.131660000000     0.390471   
C38      C      0.609190000000     0.154300000000     0.006620000000     0.478966   
C39      C      0.507540000000     0.137060000000     0.082030000000     0.465758   
C40      C      0.609780000000     0.080320000000     0.062280000000     0.472022   
C41      C      0.459920000000     0.023540000000     0.527580000000     0.47979    
C42      C      0.569130000000     0.965700000000     0.520220000000     0.398058   
C43      C      0.525210000000     0.026540000000     0.474790000000     0.488827   
C44      C      0.460560000000     0.961090000000     0.598550000000     0.410371   
C45      C      0.552100000000     0.034900000000     0.633520000000     0.491853   
C46      C      0.616270000000     0.106500000000     0.503980000000     0.494077   
C47      C      0.523230000000     0.104250000000     0.580460000000     0.475761   
C48      C      0.625830000000     0.033890000000     0.574800000000     0.486069   
C49      C      0.437930000000     0.475000000000     0.029570000000     0.485721   
C50      C      0.503920000000     0.634280000000     0.032040000000     0.473101   
C51      C      0.458160000000     0.567320000000     0.106350000000     0.496796   
C52      C      0.507410000000     0.527500000000     0.977720000000     0.45263    
C53      C      0.592670000000     0.564970000000     0.032610000000     0.459386   
C54      C      0.540510000000     0.556210000000     0.135370000000     0.522492   
C55      C      0.477260000000     0.458110000000     0.099610000000     0.399564   
C56      C      0.601510000000     0.646030000000     0.043760000000     0.493508   
C57      C      0.474050000000     0.434540000000     0.538210000000     0.510208   
C58      C      0.589240000000     0.622180000000     0.523480000000     0.435683   
C59      C      0.463560000000     0.525690000000     0.562440000000     0.500876   
C60      C      0.563530000000     0.529120000000     0.479700000000     0.480141   
C61      C      0.649790000000     0.547370000000     0.528680000000     0.425204   
C62      C      0.532960000000     0.544560000000     0.635330000000     0.475845   
C63      C      0.550520000000     0.448510000000     0.596960000000     0.525305   
C64      C      0.622250000000     0.598730000000     0.599070000000     0.452888   
C65      C      0.532640000000     0.520700000000     0.894050000000    -0.166613   
C66      C      0.528090000000     0.578350000000     0.680070000000     0.076222   
C67      C      0.546710000000     0.530490000000     0.689830000000     0.0771015  
C68      C      0.527820000000     0.582370000000     0.713960000000    -0.094036   
C69      C      0.500760000000     0.555820000000     0.785030000000    -0.0381472  
C70      C      0.495900000000     0.550620000000     0.818850000000    -0.0291051  
C71      C      0.534650000000     0.560750000000     0.771950000000    -0.00476201 
C72      C      0.547510000000     0.534340000000     0.723510000000    -0.0940326  
C73      C      0.524980000000     0.550590000000     0.840330000000    -0.0193404  
C74      C      0.499810000000     0.557490000000     0.892780000000    -0.112952   
C75      C      0.559610000000     0.557330000000     0.827210000000    -0.0294162  
C76      C      0.495270000000     0.550740000000     0.926400000000     0.0808453  
C77      C      0.527960000000     0.514410000000     0.928160000000     0.243519   
C78      C      0.564290000000     0.562170000000     0.793440000000    -0.0388293  
C79      C      0.537300000000     0.559880000000     0.736020000000     0.0501696  
C80      C      0.519100000000     0.542890000000     0.876170000000     0.081392   
C81      C      0.585190000000     0.577560000000     0.218900000000    -0.169066   
C82      C      0.532430000000     0.501200000000     0.428430000000     0.07655    
C83      C      0.581490000000     0.568110000000     0.430730000000     0.077632   
C84      C      0.530670000000     0.503180000000     0.394230000000    -0.0940788  
C85      C      0.552170000000     0.507660000000     0.324050000000    -0.0379462  
C86      C      0.553080000000     0.509090000000     0.289870000000    -0.0293096  
C87      C      0.556630000000     0.539690000000     0.341300000000    -0.00446476 
C88      C      0.580700000000     0.571050000000     0.396510000000    -0.0931509  
C89      C      0.558850000000     0.542720000000     0.272110000000    -0.019859   
C90      C      0.529720000000     0.512530000000     0.217500000000    -0.113684   
C91      C      0.563640000000     0.574850000000     0.289300000000    -0.0288629  
C92      C      0.526280000000     0.516350000000     0.183540000000     0.088599   
C93      C      0.581430000000     0.580690000000     0.184510000000     0.245353   
C94      C      0.562450000000     0.573330000000     0.323440000000    -0.0380812  
C95      C      0.555750000000     0.538080000000     0.377740000000     0.0498493  
C96      C      0.558320000000     0.543990000000     0.235710000000     0.0835068  
C97      C      0.614170000000     0.908120000000     0.500380000000    -0.165331   
C98      C      0.560800000000     0.659990000000     0.505220000000     0.0687     
C99      C      0.628200000000     0.692230000000     0.519820000000     0.0716908  
C100     C      0.562030000000     0.695600000000     0.500700000000    -0.093341   
C101     C      0.570720000000     0.773200000000     0.481560000000    -0.0380737  
C102     C      0.566690000000     0.806200000000     0.482300000000    -0.0300997  
C103     C      0.597130000000     0.768800000000     0.503520000000    -0.00433444 
C104     C      0.630590000000     0.728810000000     0.515160000000    -0.0916557  
C105     C      0.589780000000     0.836260000000     0.504280000000    -0.019373   
C106     C      0.548180000000     0.864730000000     0.514880000000    -0.110174   
C107     C      0.617720000000     0.833250000000     0.524970000000    -0.029833   
C108     C      0.543770000000     0.897100000000     0.518650000000     0.0824309  
C109     C      0.608880000000     0.940450000000     0.503480000000     0.240994   
C110     C      0.621150000000     0.799740000000     0.524820000000    -0.0381369  
C111     C      0.597000000000     0.730850000000     0.505990000000     0.0470119  
C112     C      0.583890000000     0.870150000000     0.506300000000     0.081171   
C113     C      0.520330000000     0.359000000000     0.647060000000    -0.170915   
C114     C      0.556940000000     0.170080000000     0.596770000000     0.0793895  
C115     C      0.494040000000     0.127370000000     0.616150000000     0.0773714  
C116     C      0.559020000000     0.201520000000     0.612050000000    -0.0968112  
C117     C      0.563560000000     0.263390000000     0.653300000000    -0.0389054  
C118     C      0.568590000000     0.300850000000     0.654300000000    -0.0299551  
C119     C      0.528470000000     0.232000000000     0.640520000000    -0.00570391 
C120     C      0.494890000000     0.158810000000     0.631490000000    -0.094538   
C121     C      0.538320000000     0.307430000000     0.643300000000    -0.0209637  
C122     C      0.576780000000     0.374010000000     0.618010000000    -0.11571    
C123     C      0.501870000000     0.275320000000     0.634050000000    -0.0293229  
C124     C      0.579340000000     0.409010000000     0.606770000000     0.0871724  
C125     C      0.523910000000     0.394900000000     0.636010000000     0.246167   
C126     C      0.497000000000     0.237900000000     0.632560000000    -0.0381536  
C127     C      0.527630000000     0.196550000000     0.629140000000     0.0496411  
C128     C      0.545950000000     0.347790000000     0.637070000000     0.0841797  
C129     C      0.573830000000     0.095660000000     0.705040000000    -0.168227   
C130     C      0.505010000000     0.058310000000     0.911230000000     0.0735484  
C131     C      0.537730000000     0.127650000000     0.908260000000     0.0759162  
C132     C      0.511580000000     0.056620000000     0.878620000000    -0.0952548  
C133     C      0.562590000000     0.066780000000     0.823100000000    -0.0385365  
C134     C      0.570350000000     0.061010000000     0.791730000000    -0.0292084  
C135     C      0.544730000000     0.088890000000     0.827620000000    -0.00507703 
C136     C      0.544690000000     0.127000000000     0.875150000000    -0.0945605  
C137     C      0.560020000000     0.076870000000     0.764090000000    -0.019231   
C138     C      0.558480000000     0.030850000000     0.722740000000    -0.111772   
C139     C      0.543150000000     0.100010000000     0.768840000000    -0.0285278  
C140     C      0.557880000000     0.021450000000     0.690120000000     0.0894294  
C141     C      0.572390000000     0.085340000000     0.672370000000     0.248958   
C142     C      0.535880000000     0.106210000000     0.800320000000    -0.0384901  
C143     C      0.533100000000     0.091150000000     0.860650000000     0.0497694  
C144     C      0.564870000000     0.067850000000     0.730370000000     0.083891   
C145     C      0.525700000000     0.068970000000     0.217680000000    -0.163863   
C146     C      0.520060000000     0.990630000000     0.427570000000     0.0813407  
C147     C      0.503170000000     0.040100000000     0.423670000000     0.0818818  
C148     C      0.519410000000     0.989660000000     0.393220000000    -0.0926469  
C149     C      0.504910000000     0.989560000000     0.317480000000    -0.0377215  
C150     C      0.509690000000     0.995720000000     0.283660000000    -0.0291625  
C151     C      0.518290000000     0.021480000000     0.338260000000    -0.00446183 
C152     C      0.501730000000     0.039520000000     0.389690000000    -0.0960495  
C153     C      0.528140000000     0.033930000000     0.270010000000    -0.0185928  
C154     C      0.541650000000     0.018300000000     0.215590000000    -0.111825   
C155     C      0.542350000000     0.065750000000     0.290980000000    -0.0291276  
C156     C      0.542990000000     0.023210000000     0.181670000000     0.0868708  
C157     C      0.527220000000     0.073510000000     0.183210000000     0.243713   
C158     C      0.537550000000     0.059620000000     0.324630000000    -0.0374348  
C159     C      0.512170000000     0.015900000000     0.374020000000     0.052004   
C160     C      0.532040000000     0.040590000000     0.233990000000     0.0822586  
C161     C      0.488860000000     0.897520000000     0.991630000000    -0.167151   
C162     C      0.498070000000     0.686820000000     0.049500000000     0.0791058  
C163     C      0.479330000000     0.666160000000     0.994540000000     0.0765715  
C164     C      0.494080000000     0.719240000000     0.042810000000    -0.0988108  
C165     C      0.526230000000     0.798590000000     0.008390000000    -0.0384136  
C166     C      0.530810000000     0.835710000000     0.010060000000    -0.029945   
C167     C      0.489080000000     0.765580000000     0.003620000000    -0.00628952 
C168     C      0.475510000000     0.699110000000     0.986770000000    -0.0952733  
C169     C      0.498330000000     0.840650000000     0.006850000000    -0.0205163  
C170     C      0.523260000000     0.898570000000     0.042390000000    -0.113605   
C171     C      0.461380000000     0.808030000000     0.999650000000    -0.0299391  
C172     C      0.529500000000     0.935650000000     0.048280000000     0.0851634  
C173     C      0.496010000000     0.935460000000     0.997810000000     0.239631   
C174     C      0.456740000000     0.770550000000     0.998240000000    -0.0388332  
C175     C      0.484480000000     0.726660000000     0.010970000000     0.0510971  
C176     C      0.503210000000     0.879310000000     0.013670000000     0.0817364  
C177     C      0.433650000000     0.355450000000     0.128150000000    -0.16295    
C178     C      0.529230000000     0.201750000000     0.099160000000     0.0767612  
C179     C      0.464250000000     0.151490000000     0.107360000000     0.0796089  
C180     C      0.521560000000     0.229510000000     0.110960000000    -0.092783   
C181     C      0.499080000000     0.277920000000     0.150720000000    -0.0385604  
C182     C      0.494380000000     0.310120000000     0.154420000000    -0.0297532  
C183     C      0.474660000000     0.248440000000     0.128600000000    -0.00452534 
C184     C      0.455340000000     0.178680000000     0.118620000000    -0.0935878  
C185     C      0.465660000000     0.314020000000     0.135520000000    -0.0185736  
C186     C      0.503380000000     0.386810000000     0.131170000000    -0.110655   
C187     C      0.439360000000     0.282970000000     0.115240000000    -0.0287429  
C188     C      0.505520000000     0.422080000000     0.122380000000     0.0833582  
C189     C      0.436570000000     0.391930000000     0.119490000000     0.238849   
C190     C      0.443730000000     0.250420000000     0.111940000000    -0.0381702  
C191     C      0.484040000000     0.218270000000     0.120090000000     0.0501687  
C192     C      0.467280000000     0.352500000000     0.132820000000     0.0796602  
C193     C      0.700540000000     0.204400000000     0.490760000000    -0.169846   
C194     C      0.933360000000     0.393630000000     0.472200000000     0.0769058  
C195     C      0.940470000000     0.369360000000     0.524790000000     0.0775573  
C196     C      0.898950000000     0.358640000000     0.465510000000    -0.0947154  
C197     C      0.815060000000     0.295430000000     0.466920000000    -0.038181   
C198     C      0.777610000000     0.263010000000     0.464640000000    -0.0290602  
C199     C      0.845500000000     0.292700000000     0.483800000000    -0.0046488  
C200     C      0.905740000000     0.334140000000     0.519100000000    -0.094653   
C201     C      0.769380000000     0.227110000000     0.479600000000    -0.0202444  
C202     C      0.717010000000     0.155910000000     0.478980000000    -0.114089   
C203     C      0.800080000000     0.223610000000     0.494920000000    -0.0286214  
C204     C      0.678710000000     0.126730000000     0.484600000000     0.0879201  
C205     C      0.662280000000     0.174690000000     0.496440000000     0.248165   
C206     C      0.837790000000     0.256070000000     0.496940000000    -0.0384004  
C207     C      0.884240000000     0.328530000000     0.489260000000     0.0502284  
C208     C      0.728390000000     0.195240000000     0.482550000000     0.0844902  
C209     C      0.384570000000     0.857400000000     0.606290000000    -0.168046   
C210     C      0.144600000000     0.668100000000     0.589870000000     0.0771359  
C211     C      0.191500000000     0.652660000000     0.574610000000     0.0791203  
C212     C      0.173950000000     0.702470000000     0.604710000000    -0.0938316  
C213     C      0.246580000000     0.785630000000     0.602160000000    -0.0382753  
C214     C      0.281040000000     0.821910000000     0.605000000000    -0.0291478  
C215     C      0.245490000000     0.751220000000     0.614180000000    -0.0047273  
C216     C      0.221260000000     0.686060000000     0.589790000000    -0.0945815  
C217     C      0.314930000000     0.824320000000     0.619950000000    -0.0202715  
C218     C      0.359300000000     0.897660000000     0.621470000000    -0.114638   
C219     C      0.312670000000     0.790400000000     0.634580000000    -0.0292762  
C220     C      0.395700000000     0.930840000000     0.616290000000     0.085555   
C221     C      0.420790000000     0.891060000000     0.600850000000     0.245091   
C222     C      0.278380000000     0.754250000000     0.631640000000    -0.0388473  
C223     C      0.212930000000     0.712280000000     0.603900000000     0.0503082  
C224     C      0.353470000000     0.860410000000     0.616440000000     0.0817729  
C225     C      0.884560000000     0.498440000000     0.497220000000    -0.169569   
C226     C      0.672270000000     0.503380000000     0.521390000000     0.0787917  
C227     C      0.717950000000     0.570860000000     0.528340000000     0.0745717  
C228     C      0.702120000000     0.494970000000     0.520940000000    -0.0964894  
C229     C      0.772240000000     0.490490000000     0.502730000000    -0.0386701  
C230     C      0.801840000000     0.481430000000     0.503620000000    -0.0296302  
C231     C      0.772490000000     0.515660000000     0.525900000000    -0.00533739 
C232     C      0.748690000000     0.563350000000     0.528440000000    -0.0937227  
C233     C      0.832110000000     0.497010000000     0.527890000000    -0.0203786  
C234     C      0.881340000000     0.481410000000     0.554660000000    -0.113989   
C235     C      0.831940000000     0.521460000000     0.551530000000    -0.0290163  
C236     C      0.916500000000     0.481850000000     0.553460000000     0.0890326  
C237     C      0.920250000000     0.499500000000     0.496750000000     0.248658   
C238     C      0.802520000000     0.530900000000     0.550420000000    -0.0382307  
C239     C      0.740820000000     0.524940000000     0.524960000000     0.0504088  
C240     C      0.865850000000     0.491200000000     0.526570000000     0.0846141  
C241     C      0.356410000000     0.473280000000     0.551440000000    -0.170148   
C242     C      0.196570000000     0.548520000000     0.492040000000     0.0809682  
C243     C      0.158540000000     0.495420000000     0.456470000000     0.0839122  
C244     C      0.223870000000     0.536820000000     0.497450000000    -0.0963839  
C245     C      0.270550000000     0.490730000000     0.468450000000    -0.0392514  
C246     C      0.303770000000     0.488920000000     0.478700000000    -0.0297865  
C247     C      0.245740000000     0.489600000000     0.491690000000    -0.00584981 
C248     C      0.185740000000     0.482900000000     0.461210000000    -0.0948544  
C249     C      0.312520000000     0.486000000000     0.512310000000    -0.0211552  
C250     C      0.384820000000     0.523480000000     0.509880000000    -0.114996   
C251     C      0.285500000000     0.481160000000     0.535100000000    -0.0289483  
C252     C      0.421560000000     0.533520000000     0.523290000000     0.0876292  
C253     C      0.393970000000     0.484030000000     0.564790000000     0.245021   
C254     C      0.252440000000     0.482970000000     0.524860000000    -0.039053   
C255     C      0.217950000000     0.503030000000     0.482930000000     0.0524718  
C256     C      0.351640000000     0.493340000000     0.524060000000     0.0833741  
C257     C      0.055170000000     0.528260000000     0.681650000000    -0.169082   
C258     C      0.039190000000     0.579580000000     0.884750000000     0.0772535  
C259     C      0.047550000000     0.524410000000     0.888060000000     0.0762773  
C260     C      0.033840000000     0.576880000000     0.850820000000    -0.0943269  
C261     C      0.048490000000     0.581980000000     0.779380000000    -0.0376473  
C262     C      0.047220000000     0.581280000000     0.745200000000    -0.0292064  
C263     C      0.033830000000     0.547010000000     0.798220000000    -0.00473414 
C264     C      0.043150000000     0.521360000000     0.853890000000    -0.0940619  
C265     C      0.031980000000     0.545720000000     0.729130000000    -0.0204109  
C266     C      0.020520000000     0.562920000000     0.671220000000    -0.114014   
C267     C      0.016760000000     0.510700000000     0.747660000000    -0.0298263  
C268     C      0.024780000000     0.562210000000     0.637650000000     0.0848049  
C269     C      0.059950000000     0.528570000000     0.647880000000     0.23914    
C270     C      0.017350000000     0.511290000000     0.781820000000    -0.0379956  
C271     C      0.036610000000     0.548110000000     0.834730000000     0.0501836  
C272     C      0.035440000000     0.545380000000     0.693430000000     0.0834424  
C273     C      0.068320000000     0.582790000000     0.348270000000    -0.169397   
C274     C      0.997440000000     0.511230000000     0.139700000000     0.0789994  
C275     C      0.048370000000     0.577550000000     0.141590000000     0.0806584  
C276     C      0.000950000000     0.507660000000     0.173790000000    -0.0941623  
C277     C      0.996410000000     0.525720000000     0.245250000000    -0.0385299  
C278     C      0.998640000000     0.529440000000     0.279210000000    -0.0289612  
C279     C      0.030360000000     0.539040000000     0.228130000000    -0.00472059 
C280     C      0.053130000000     0.574810000000     0.175360000000    -0.0956223  
C281     C      0.034870000000     0.546300000000     0.296690000000    -0.0204754  
C282     C      0.010140000000     0.519930000000     0.352190000000    -0.115877   
C283     C      0.068680000000     0.558600000000     0.279530000000    -0.0286466  
C284     C      0.015430000000     0.521590000000     0.386110000000     0.0884117  
C285     C      0.073230000000     0.583800000000     0.382750000000     0.246201   
C286     C      0.066460000000     0.555140000000     0.245600000000    -0.0387667  
C287     C      0.028570000000     0.540000000000     0.191940000000     0.0516867  
C288     C      0.037520000000     0.549990000000     0.332810000000     0.0843602  
C289     C      0.691250000000     0.255370000000     0.996780000000    -0.167316   
C290     C      0.924400000000     0.433360000000     0.941960000000     0.0767429  
C291     C      0.890700000000     0.464800000000     0.956500000000     0.0809303  
C292     C      0.889290000000     0.398050000000     0.937540000000    -0.0937127  
C293     C      0.818890000000     0.322840000000     0.959250000000    -0.0368702  
C294     C      0.784710000000     0.287650000000     0.966020000000    -0.0297655  
C295     C      0.817470000000     0.356240000000     0.947520000000    -0.0042797  
C296     C      0.855080000000     0.429860000000     0.952780000000    -0.09072    
C297     C      0.748360000000     0.285150000000     0.961720000000    -0.0195769  
C298     C      0.700290000000     0.212540000000     0.963760000000    -0.113657   
C299     C      0.746640000000     0.317730000000     0.948670000000    -0.0300128  
C300     C      0.665890000000     0.180830000000     0.975380000000     0.0832422  
C301     C      0.657280000000     0.223090000000     0.008820000000     0.241781   
C302     C      0.780680000000     0.352680000000     0.941350000000    -0.0378312  
C303     C      0.854090000000     0.395230000000     0.944890000000     0.0498904  
C304     C      0.712760000000     0.250390000000     0.973970000000     0.0821371  
C305     C      0.203680000000     0.713970000000     0.078970000000    -0.170701   
C306     C      0.380910000000     0.963140000000     0.103200000000     0.0743283  
C307     C      0.410470000000     0.930300000000     0.082050000000     0.0756932  
C308     C      0.346020000000     0.927960000000     0.106110000000    -0.0933743  
C309     C      0.271970000000     0.854190000000     0.083710000000    -0.0391407  
C310     C      0.237140000000     0.818510000000     0.081900000000    -0.0286541  
C311     C      0.305850000000     0.856080000000     0.097920000000    -0.00434548 
C312     C      0.376070000000     0.894440000000     0.085080000000    -0.0920213  
C313     C      0.235390000000     0.784050000000     0.094590000000    -0.0211108  
C314     C      0.162890000000     0.740860000000     0.087410000000    -0.116367   
C315     C      0.268940000000     0.786470000000     0.110410000000    -0.0286857  
C316     C      0.130910000000     0.706640000000     0.075320000000     0.087158   
C317     C      0.170950000000     0.679520000000     0.067270000000     0.244804   
C318     C      0.303940000000     0.822110000000     0.111790000000    -0.0393042  
C319     C      0.343310000000     0.893190000000     0.096870000000     0.0495042  
C320     C      0.200070000000     0.745520000000     0.087930000000     0.0838945  
C321     C      0.686710000000     0.575950000000     0.059830000000    -0.169358   
C322     C      0.903860000000     0.580720000000     0.043710000000     0.0810651  
C323     C      0.859680000000     0.513030000000     0.036090000000     0.0749095  
C324     C      0.873460000000     0.588500000000     0.041300000000    -0.0949115  
C325     C      0.772850000000     0.548800000000     0.008350000000    -0.0380405  
C326     C      0.741980000000     0.556190000000     0.006190000000    -0.0290341  
C327     C      0.802810000000     0.566410000000     0.032730000000    -0.00491284 
C328     C      0.828410000000     0.519850000000     0.033360000000    -0.0928314  
C329     C      0.740330000000     0.581000000000     0.028590000000    -0.0204079  
C330     C      0.686560000000     0.589980000000     0.001940000000    -0.113793   
C331     C      0.770860000000     0.599500000000     0.052310000000    -0.0296703  
C332     C      0.650120000000     0.586700000000     0.003790000000     0.0892489  
C333     C      0.649840000000     0.572070000000     0.061000000000     0.246603   
C334     C      0.801780000000     0.592370000000     0.054320000000    -0.0387867  
C335     C      0.835210000000     0.558050000000     0.035730000000     0.0503504  
C336     C      0.704590000000     0.583390000000     0.030040000000     0.0841401  
C337     C      0.190190000000     0.542710000000     0.053480000000    -0.167943   
C338     C      0.433870000000     0.610710000000     0.111050000000     0.0781782  
C339     C      0.390790000000     0.542100000000     0.112440000000     0.0805319  
C340     C      0.402430000000     0.617060000000     0.105740000000    -0.0951993  
C341     C      0.331200000000     0.606820000000     0.060610000000    -0.0385743  
C342     C      0.297040000000     0.604320000000     0.046550000000    -0.0290955  
C343     C      0.331160000000     0.589770000000     0.091570000000    -0.00487098 
C344     C      0.358770000000     0.547380000000     0.108360000000    -0.0944629  
C345     C      0.262290000000     0.585110000000     0.063390000000    -0.0207799  
C346     C      0.222260000000     0.604670000000     0.024970000000    -0.115747   
C347     C      0.263320000000     0.570640000000     0.095420000000    -0.0291063  
C348     C      0.186150000000     0.597020000000     0.010970000000     0.0953766  
C349     C      0.154110000000     0.535780000000     0.039510000000     0.248019   
C350     C      0.297190000000     0.572460000000     0.109130000000    -0.0395863  
C351     C      0.364500000000     0.585030000000     0.103160000000     0.0511849  
C352     C      0.224540000000     0.577760000000     0.047180000000     0.0836048  
C353     C      0.906860000000     0.842150000000     0.589460000000    -0.164733   
C354     C      0.659460000000     0.663460000000     0.619530000000     0.077603   
C355     C      0.688860000000     0.624780000000     0.616290000000     0.0799248  
C356     C      0.695980000000     0.697050000000     0.624440000000    -0.0932483  
C357     C      0.779280000000     0.764190000000     0.639130000000    -0.0389029  
C358     C      0.813980000000     0.799350000000     0.633560000000    -0.0296514  
C359     C      0.768560000000     0.730970000000     0.620610000000    -0.00422356 
C360     C      0.725800000000     0.657740000000     0.621040000000    -0.0927021  
C361     C      0.838600000000     0.802250000000     0.609080000000    -0.0187686  
C362     C      0.872930000000     0.875460000000     0.600960000000    -0.112204   
C363     C      0.828200000000     0.768590000000     0.591220000000    -0.0285184  
C364     C      0.903780000000     0.910170000000     0.588880000000     0.0867853  
C365     C      0.937560000000     0.877490000000     0.576980000000     0.246824   
C366     C      0.793820000000     0.733490000000     0.596990000000    -0.0377708  
C367     C      0.729820000000     0.694780000000     0.623390000000     0.0502546  
C368     C      0.873520000000     0.840520000000     0.600430000000     0.0822282  
C369     C      0.205960000000     0.194110000000     0.511790000000    -0.171185   
C370     C      0.446590000000     0.376780000000     0.506550000000     0.0788009  
C371     C      0.405680000000     0.396670000000     0.528060000000     0.0785051  
C372     C      0.414140000000     0.342870000000     0.494250000000    -0.0966206  
C373     C      0.340610000000     0.262370000000     0.498040000000    -0.0382982  
C374     C      0.305330000000     0.226930000000     0.496480000000    -0.0291949  
C375     C      0.341610000000     0.297850000000     0.490420000000    -0.00558513 
C376     C      0.372770000000     0.363370000000     0.515950000000    -0.0956023  
C377     C      0.270570000000     0.226500000000     0.487390000000    -0.0213995  
C378     C      0.223980000000     0.154220000000     0.483760000000    -0.117151   
C379     C      0.272110000000     0.261530000000     0.476970000000    -0.0297082  
C380     C      0.189240000000     0.121160000000     0.492610000000     0.0882096  
C381     C      0.171400000000     0.160460000000     0.520840000000     0.245368   
C382     C      0.307330000000     0.296870000000     0.478390000000    -0.038924   
C383     C      0.376680000000     0.335590000000     0.499360000000     0.0510942  
C384     C      0.232670000000     0.191100000000     0.493590000000     0.0848116  
C385     C      0.700020000000     0.005800000000     0.585210000000    -0.165782   
C386     C      0.876230000000     0.969800000000     0.507690000000     0.0739494  
C387     C      0.911180000000     0.038130000000     0.496280000000     0.0690432  
C388     C      0.843910000000     0.972070000000     0.515790000000    -0.0948574  
C389     C      0.797970000000     0.031570000000     0.506970000000    -0.0393775  
C390     C      0.770120000000     0.038300000000     0.519310000000    -0.0299217  
C391     C      0.814100000000     0.012760000000     0.526450000000    -0.00527177 
C392     C      0.879200000000     0.041250000000     0.503290000000    -0.0952234  
C393     C      0.758370000000     0.027110000000     0.551710000000    -0.0201054  
C394     C      0.724600000000     0.065910000000     0.553940000000    -0.111454   
C395     C      0.774790000000     0.008320000000     0.571170000000    -0.0294415  
C396     C      0.691810000000     0.067640000000     0.560930000000     0.0948686  
C397     C      0.667500000000     0.008620000000     0.592520000000     0.24787    
C398     C      0.802110000000     0.000930000000     0.558560000000    -0.0395686  
C399     C      0.845680000000     0.008310000000     0.514340000000     0.0483252  
C400     C      0.727800000000     0.033420000000     0.564300000000     0.0843456  
C401     C      0.354110000000     0.965300000000     0.535730000000    -0.168187   
C402     C      0.129080000000     0.955460000000     0.539320000000     0.0767706  
C403     C      0.160930000000     0.002850000000     0.580680000000     0.077849   
C404     C      0.161780000000     0.951690000000     0.537480000000    -0.0965726  
C405     C      0.246180000000     0.987450000000     0.518000000000    -0.0386761  
C406     C      0.282260000000     0.992350000000     0.511280000000    -0.0301353  
C407     C      0.232500000000     0.977600000000     0.549860000000    -0.00596795 
C408     C      0.194110000000     0.999380000000     0.579800000000    -0.0957433  
C409     C      0.304950000000     0.986670000000     0.536130000000    -0.0210551  
C410     C      0.372150000000     0.030630000000     0.517500000000    -0.114955   
C411     C      0.290910000000     0.975840000000     0.567840000000    -0.0295753  
C412     C      0.410240000000     0.038870000000     0.514800000000     0.088507   
C413     C      0.392540000000     0.973870000000     0.531740000000     0.244179   
C414     C      0.255130000000     0.971830000000     0.574770000000    -0.0390973  
C415     C      0.195340000000     0.975110000000     0.556750000000     0.0505293  
C416     C      0.344140000000     0.994130000000     0.529460000000     0.083759   
C417     C      0.975180000000     0.834620000000     0.446600000000    -0.165149   
C418     C      0.016770000000     0.655830000000     0.495240000000     0.0765574  
C419     C      0.073440000000     0.677860000000     0.465380000000     0.0740731  
C420     C      0.011010000000     0.685230000000     0.481060000000    -0.0931722  
C421     C      0.063390000000     0.783870000000     0.453460000000    -0.0388017  
C422     C      0.056880000000     0.815240000000     0.448780000000    -0.0281753  
C423     C      0.033260000000     0.745660000000     0.447080000000    -0.00404235 
C424     C      0.069050000000     0.708420000000     0.451270000000    -0.0922181  
C425     C      0.020210000000     0.809180000000     0.437050000000    -0.0193663  
C426     C      0.041120000000     0.880480000000     0.433330000000    -0.115054   
C427     C      0.991040000000     0.771090000000     0.428270000000    -0.0288558  
C428     C      0.035680000000     0.910820000000     0.441870000000     0.0902712  
C429     C      0.969970000000     0.866010000000     0.454210000000     0.244525   
C430     C      0.997390000000     0.739600000000     0.433580000000    -0.0392472  
C431     C      0.037440000000     0.712140000000     0.459100000000     0.0496006  
C432     C      0.011610000000     0.841660000000     0.437720000000     0.0830236  
C433     C      0.111500000000     0.387630000000     0.523100000000    -0.169624   
C434     C      0.052370000000     0.164310000000     0.541530000000     0.0798644  
C435     C      0.088290000000     0.166120000000     0.590710000000     0.0831106  
C436     C      0.067160000000     0.204530000000     0.542830000000    -0.0964469  
C437     C      0.094820000000     0.283030000000     0.593740000000    -0.0383701  
C438     C      0.102110000000     0.321470000000     0.590720000000    -0.0293412  
C439     C      0.107730000000     0.268210000000     0.570210000000    -0.00703261 
C440     C      0.102940000000     0.206320000000     0.593160000000    -0.0991935  
C441     C      0.122670000000     0.345610000000     0.564230000000    -0.0204172  
C442     C      0.122900000000     0.406700000000     0.579340000000    -0.113886   
C443     C      0.138880000000     0.331700000000     0.542730000000    -0.0301916  
C444     C      0.113470000000     0.435620000000     0.570720000000     0.0841856  
C445     C      0.101560000000     0.416400000000     0.514980000000     0.244995   
C446     C      0.131020000000     0.293160000000     0.545440000000    -0.0391752  
C447     C      0.092710000000     0.225830000000     0.568790000000     0.0512668  
C448     C      0.120710000000     0.381470000000     0.555530000000     0.0828857  
C449     C      0.968440000000     0.000120000000     0.872100000000    -0.165481   
C450     C      0.032350000000     0.000800000000     0.667630000000     0.0751855  
C451     C      0.981690000000     0.015090000000     0.656900000000     0.0768431  
C452     C      0.027250000000     0.998940000000     0.701330000000    -0.0942403  
C453     C      0.031110000000     0.031070000000     0.768310000000    -0.0375697  
C454     C      0.029330000000     0.037480000000     0.801230000000    -0.0291169  
C455     C      0.996890000000     0.009730000000     0.748760000000    -0.00521286 
C456     C      0.975590000000     0.013110000000     0.690320000000    -0.0954732  
C457     C      0.993280000000     0.022560000000     0.815530000000    -0.0192321  
C458     C      0.017010000000     0.067410000000     0.863090000000    -0.11284    
C459     C      0.958960000000     0.000360000000     0.796280000000    -0.0295131  
C460     C      0.020640000000     0.073100000000     0.896730000000     0.0873943  
C461     C      0.972650000000     0.006530000000     0.906220000000     0.245085   
C462     C      0.960750000000     0.994220000000     0.763140000000    -0.0381608  
C463     C      0.999280000000     0.006170000000     0.713080000000     0.0499201  
C464     C      0.992180000000     0.030200000000     0.850540000000     0.0825675  
C465     C      0.019930000000     0.110670000000     0.193590000000    -0.166342   
C466     C      0.067240000000     0.082640000000     0.408640000000     0.0764604  
C467     C      0.999390000000     0.038540000000     0.402430000000     0.0766776  
C468     C      0.067980000000     0.096120000000     0.376360000000    -0.0937629  
C469     C      0.067670000000     0.092060000000     0.303150000000    -0.0379014  
C470     C      0.067770000000     0.095170000000     0.269010000000    -0.029622   
C471     C      0.035880000000     0.087450000000     0.319910000000    -0.00443146 
C472     C      0.999150000000     0.051010000000     0.369820000000    -0.0924204  
C473     C      0.036010000000     0.093510000000     0.250560000000    -0.0195455  
C474     C      0.044110000000     0.066150000000     0.200030000000    -0.1137     
C475     C      0.005040000000     0.090890000000     0.267230000000    -0.0291492  
C476     C      0.039500000000     0.061010000000     0.166330000000     0.0847306  
C477     C      0.015790000000     0.105310000000     0.159230000000     0.241624   
C478     C      0.004940000000     0.087820000000     0.301540000000    -0.0380595  
C479     C      0.034050000000     0.079070000000     0.355960000000     0.0494791  
C480     C      0.033720000000     0.090620000000     0.214230000000     0.0816043  
C481     C      0.686770000000     0.692010000000     0.992810000000    -0.17233    
C482     C      0.887940000000     0.907250000000     0.021000000000     0.0805377  
C483     C      0.932560000000     0.890780000000     0.001600000000     0.0790351  
C484     C      0.857340000000     0.869700000000     0.015340000000    -0.0972945  
C485     C      0.799560000000     0.796390000000     0.978760000000    -0.0390582  
C486     C      0.762990000000     0.763750000000     0.982930000000    -0.0285138  
C487     C      0.831280000000     0.801790000000     0.999310000000    -0.00605334 
C488     C      0.902360000000     0.852250000000     0.996270000000    -0.0963957  
C489     C      0.757400000000     0.735550000000     0.007620000000    -0.0209824  
C490     C      0.707880000000     0.696660000000     0.049600000000    -0.113523   
C491     C      0.790160000000     0.739020000000     0.025860000000    -0.0292538  
C492     C      0.669000000000     0.675430000000     0.057910000000     0.0888971  
C493     C      0.647860000000     0.671920000000     0.001700000000     0.248895   
C494     C      0.826930000000     0.772090000000     0.021790000000    -0.0390049  
C495     C      0.864420000000     0.841720000000     0.003270000000     0.051971   
C496     C      0.717140000000     0.706300000000     0.016730000000     0.0845231  
C497     C      0.357010000000     0.375470000000     0.020770000000    -0.167931   
C498     C      0.123030000000     0.196740000000     0.078750000000     0.0804705  
C499     C      0.160940000000     0.167830000000     0.069650000000     0.0776166  
C500     C      0.156550000000     0.233640000000     0.081020000000    -0.0935425  
C501     C      0.222970000000     0.304800000000     0.049470000000    -0.037287   
C502     C      0.255660000000     0.338720000000     0.038500000000    -0.0292045  
C503     C      0.227170000000     0.276840000000     0.069120000000    -0.00420294 
C504     C      0.194930000000     0.204050000000     0.071880000000    -0.0935845  
C505     C      0.293050000000     0.344990000000     0.046650000000    -0.0198595  
C506     C      0.333760000000     0.417110000000     0.037270000000    -0.112688   
C507     C      0.297360000000     0.318030000000     0.067450000000    -0.0276004  
C508     C      0.370190000000     0.449520000000     0.031600000000     0.0964343  
C509     C      0.393410000000     0.408680000000     0.014880000000     0.251348   
C510     C      0.264780000000     0.284440000000     0.078750000000    -0.0392457  
C511     C      0.192790000000     0.237840000000     0.075550000000     0.0511569  
C512     C      0.327910000000     0.379630000000     0.033980000000     0.088372   
C513     C      0.691820000000     0.082730000000     0.111430000000    -0.166649   
C514     C      0.886110000000     0.059080000000     0.043040000000     0.075019   
C515     C      0.881970000000     0.028280000000     0.095000000000     0.0773554  
C516     C      0.857000000000     0.066570000000     0.050250000000    -0.0954611  
C517     C      0.816560000000     0.103310000000     0.078810000000    -0.0382069  
C518     C      0.786440000000     0.111250000000     0.080340000000    -0.030053   
C519     C      0.811310000000     0.066520000000     0.088830000000    -0.00529389 
C520     C      0.852510000000     0.035440000000     0.103120000000    -0.0940856  
C521     C      0.750580000000     0.082810000000     0.092380000000    -0.0202086  
C522     C      0.706310000000     0.094390000000     0.054470000000    -0.11535    
C523     C      0.746300000000     0.047310000000     0.105110000000    -0.0292373  
C524     C      0.671420000000     0.093650000000     0.047560000000     0.0897171  
C525     C      0.656890000000     0.083230000000     0.103980000000     0.245482   
C526     C      0.776470000000     0.039170000000     0.103310000000    -0.0379517  
C527     C      0.840610000000     0.055920000000     0.080920000000     0.0501246  
C528     C      0.716210000000     0.087570000000     0.086420000000     0.0841018  
C529     C      0.368310000000     0.079020000000     0.978050000000    -0.165786   
C530     C      0.154310000000     0.058520000000     0.975440000000     0.0755199  
C531     C      0.114690000000     0.989750000000     0.970260000000     0.0713024  
C532     C      0.187500000000     0.056690000000     0.970600000000    -0.0944041  
C533     C      0.229250000000     0.997540000000     0.990100000000    -0.0382512  
C534     C      0.266790000000     0.003040000000     0.994220000000    -0.0292253  
C535     C      0.220860000000     0.018920000000     0.965940000000    -0.00510901 
C536     C      0.147740000000     0.986710000000     0.966270000000    -0.0942122  
C537     C      0.296600000000     0.029750000000     0.973980000000    -0.0191151  
C538     C      0.347070000000     0.012510000000     0.994480000000    -0.111866   
C539     C      0.287110000000     0.048750000000     0.948180000000    -0.0292956  
C540     C      0.385240000000     0.023890000000     0.005000000000     0.087718   
C541     C      0.406870000000     0.089880000000     0.988480000000     0.243784   
C542     C      0.249770000000     0.043670000000     0.944410000000    -0.0388744  
C543     C      0.184650000000     0.020520000000     0.966720000000     0.0490863  
C544     C      0.337870000000     0.040290000000     0.981620000000     0.0819107  
C545     C      0.009500000000     0.721800000000     0.995760000000    -0.167145   
C546     C      0.087950000000     0.966070000000     0.050460000000     0.080274   
C547     C      0.028420000000     0.923730000000     0.075380000000     0.0811365  
C548     C      0.091270000000     0.934010000000     0.042250000000    -0.0940797  
C549     C      0.089370000000     0.853810000000     0.038040000000    -0.0395793  
C550     C      0.085740000000     0.820030000000     0.024940000000    -0.029798   
C551     C      0.058780000000     0.861630000000     0.033730000000    -0.00554987 
C552     C      0.030340000000     0.891130000000     0.066950000000    -0.0960465  
C553     C      0.051710000000     0.793800000000     0.006730000000    -0.0198199  
C554     C      0.077500000000     0.752950000000     0.985690000000    -0.114256   
C555     C      0.021980000000     0.802920000000     0.001280000000    -0.0295349  
C556     C      0.072600000000     0.716320000000     0.979550000000     0.0874317  
C557     C      0.005120000000     0.685190000000     0.989040000000     0.239166   
C558     C      0.025340000000     0.836180000000     0.014850000000    -0.0382377  
C559     C      0.060940000000     0.896010000000     0.048670000000     0.0513504  
C560     C      0.046160000000     0.755920000000     0.995420000000     0.08104    
C561     C      0.047990000000     0.236550000000     0.989340000000    -0.165832   
C562     C      0.954620000000     0.396380000000     0.021210000000     0.0723042  
C563     C      0.011060000000     0.419590000000     0.056520000000     0.0735707  
C564     C      0.956350000000     0.362830000000     0.014900000000    -0.0923692  
C565     C      0.961670000000     0.289400000000     0.008810000000    -0.0384887  
C566     C      0.967960000000     0.259300000000     0.000390000000    -0.0300525  
C567     C      0.992730000000     0.325250000000     0.020270000000    -0.00394184 
C568     C      0.012590000000     0.385850000000     0.052080000000    -0.0918116  
C569     C      0.005320000000     0.263550000000     0.004100000000    -0.0184825  
C570     C      0.981790000000     0.191470000000     0.002280000000    -0.113203   
C571     C      0.036360000000     0.299560000000     0.015220000000    -0.0291557  
C572     C      0.988520000000     0.160720000000     0.998790000000     0.0781052  
C573     C      0.054560000000     0.204850000000     0.987090000000     0.241437   
C574     C      0.030310000000     0.330030000000     0.022510000000    -0.0383962  
C575     C      0.986650000000     0.357890000000     0.029440000000     0.0465877  
C576     C      0.011680000000     0.230210000000     0.998040000000     0.079713   
Co1      Co     0.004910000000     0.092290000000     0.044750000000     1.1047     
Co2      Co     0.031310000000     0.020610000000     0.007670000000     1.06099    
Co3      Co     0.068540000000     0.092090000000     0.002630000000     0.917609   
Co4      Co     0.984950000000     0.009060000000     0.071440000000     1.11789    
Co5      Co     0.071790000000     0.012640000000     0.498550000000     1.03579    
Co6      Co     0.992760000000     0.031470000000     0.547750000000     1.06626    
Co7      Co     0.996590000000     0.975710000000     0.502860000000     1.0458     
Co8      Co     0.078070000000     0.051390000000     0.571140000000     1.12061    
Co9      Co     0.037740000000     0.514360000000     0.999400000000     1.08121    
Co10     Co     0.018780000000     0.600480000000     0.038230000000     1.03585    
Co11     Co     0.975400000000     0.525080000000     0.027290000000     1.04606    
Co12     Co     0.082630000000     0.606790000000     0.988950000000     1.12949    
Co13     Co     0.050190000000     0.491380000000     0.478010000000     1.1363     
Co14     Co     0.045650000000     0.567310000000     0.526270000000     1.11088    
Co15     Co     0.039720000000     0.489880000000     0.553750000000     1.07219    
Co16     Co     0.107650000000     0.584150000000     0.492610000000     1.03089    
Co17     Co     0.489940000000     0.059320000000     0.071250000000     0.923762   
Co18     Co     0.554840000000     0.066680000000     0.004890000000     1.1384     
Co19     Co     0.535310000000     0.132460000000     0.023390000000     1.12081    
Co20     Co     0.532910000000     0.045900000000     0.077500000000     0.892549   
Co21     Co     0.506830000000     0.024630000000     0.578880000000     1.14831    
Co22     Co     0.573730000000     0.027160000000     0.527560000000     1.16281    
Co23     Co     0.542120000000     0.084910000000     0.523900000000     1.18813    
Co24     Co     0.542960000000     0.987340000000     0.579120000000     0.765887   
Co25     Co     0.519130000000     0.506880000000     0.043190000000     0.906847   
Co26     Co     0.541260000000     0.610320000000     0.087420000000     1.1575     
Co27     Co     0.480090000000     0.516660000000     0.079320000000     1.11244    
Co28     Co     0.533510000000     0.590170000000     0.011380000000     1.10184    
Co29     Co     0.559650000000     0.484400000000     0.535520000000     1.04045    
Co30     Co     0.542400000000     0.575920000000     0.567970000000     1.05796    
Co31     Co     0.502730000000     0.487060000000     0.590180000000     1.1861     
Co32     Co     0.604010000000     0.561730000000     0.542920000000     1.05469    
H1       H      0.554140000000     0.509680000000     0.681410000000     0.0336322  
H2       H      0.480510000000     0.563240000000     0.938050000000     0.0213605  
H3       H      0.590890000000     0.566310000000     0.784020000000     0.0388235  
H4       H      0.468720000000     0.545200000000     0.827990000000     0.0365021  
H5       H      0.488940000000     0.574910000000     0.880090000000     0.0572884  
H6       H      0.477240000000     0.554090000000     0.769000000000     0.0398481  
H7       H      0.546550000000     0.507930000000     0.881570000000     0.0713855  
H8       H      0.554760000000     0.516240000000     0.739690000000     0.0550482  
H9       H      0.519970000000     0.602630000000     0.722810000000     0.0532297  
H10      H      0.583050000000     0.558540000000     0.843000000000     0.0353328  
H11      H      0.520110000000     0.595710000000     0.663620000000     0.0233902  
H12      H      0.553450000000     0.483120000000     0.930400000000     0.145951   
H13      H      0.602060000000     0.593990000000     0.444270000000     0.0313795  
H14      H      0.502390000000     0.491770000000     0.170730000000     0.0297153  
H15      H      0.565410000000     0.598310000000     0.335760000000     0.0387816  
H16      H      0.549640000000     0.484000000000     0.277340000000     0.0359519  
H17      H      0.508650000000     0.485770000000     0.229530000000     0.0598902  
H18      H      0.548460000000     0.481550000000     0.336970000000     0.0382329  
H19      H      0.608640000000     0.601610000000     0.232520000000     0.0717336  
H20      H      0.600670000000     0.598670000000     0.384940000000     0.0540949  
H21      H      0.510040000000     0.477260000000     0.380840000000     0.0529758  
H22      H      0.567430000000     0.600930000000     0.276260000000     0.0369949  
H23      H      0.513190000000     0.473310000000     0.440110000000     0.0269014  
H24      H      0.628820000000     0.632240000000     0.183930000000     0.1441     
H25      H      0.654400000000     0.691690000000     0.527740000000     0.0296787  
H26      H      0.515780000000     0.891480000000     0.526110000000     0.0326713  
H27      H      0.641550000000     0.797530000000     0.542320000000     0.0373789  
H28      H      0.545370000000     0.808190000000     0.465760000000     0.0373393  
H29      H      0.524060000000     0.835590000000     0.519590000000     0.0590195  
H30      H      0.552520000000     0.750820000000     0.464010000000     0.0380848  
H31      H      0.641970000000     0.912650000000     0.493550000000     0.0723805  
H32      H      0.658490000000     0.755170000000     0.519070000000     0.052547   
H33      H      0.535020000000     0.695060000000     0.494270000000     0.0516238  
H34      H      0.635890000000     0.856180000000     0.542150000000     0.0371065  
H35      H      0.532720000000     0.633720000000     0.501210000000     0.0268748  
H36      H      0.662810000000     0.977020000000     0.492280000000     0.144997   
H37      H      0.468210000000     0.098680000000     0.617840000000     0.0291953  
H38      H      0.602470000000     0.427360000000     0.590520000000     0.0212686  
H39      H      0.469710000000     0.214460000000     0.622470000000     0.0382675  
H40      H      0.596770000000     0.325030000000     0.662020000000     0.0358931  
H41      H      0.597410000000     0.366400000000     0.609980000000     0.057972   
H42      H      0.588110000000     0.259570000000     0.660290000000     0.0376344  
H43      H      0.497010000000     0.339450000000     0.662690000000     0.0723883  
H44      H      0.469950000000     0.153790000000     0.644500000000     0.0530082  
H45      H      0.584630000000     0.230100000000     0.608970000000     0.0540966  
H46      H      0.478050000000     0.279670000000     0.625400000000     0.0369784  
H47      H      0.581980000000     0.176030000000     0.583350000000     0.0375103  
H48      H      0.480780000000     0.386190000000     0.662270000000     0.145223   
H49      H      0.549170000000     0.155830000000     0.919520000000     0.024684   
H50      H      0.550640000000     0.991840000000     0.685070000000     0.0260878  
H51      H      0.521840000000     0.123110000000     0.803220000000     0.0393178  
H52      H      0.584070000000     0.043760000000     0.789180000000     0.0358177  
H53      H      0.551730000000     0.008390000000     0.741520000000     0.0586852  
H54      H      0.570110000000     0.053500000000     0.843920000000     0.0388298  
H55      H      0.581190000000     0.125180000000     0.710440000000     0.0724181  
H56      H      0.560860000000     0.154290000000     0.861630000000     0.0536678  
H57      H      0.501010000000     0.028340000000     0.867830000000     0.0545108  
H58      H      0.534160000000     0.112210000000     0.748160000000     0.037115   
H59      H      0.489330000000     0.030710000000     0.924550000000     0.0330647  
H60      H      0.588010000000     0.138570000000     0.656580000000     0.147378   
H61      H      0.496710000000     0.060340000000     0.434770000000     0.0210804  
H62      H      0.549980000000     0.004560000000     0.168630000000     0.0341244  
H63      H      0.549120000000     0.084920000000     0.340080000000     0.0401761  
H64      H      0.498110000000     0.970520000000     0.268110000000     0.0370869  
H65      H      0.547880000000     0.996830000000     0.227280000000     0.0585076  
H66      H      0.489900000000     0.959880000000     0.327230000000     0.0391915  
H67      H      0.518360000000     0.086760000000     0.231480000000     0.0720153  
H68      H      0.494200000000     0.058940000000     0.375780000000     0.0539644  
H69      H      0.527010000000     0.970430000000     0.381970000000     0.0556186  
H70      H      0.557440000000     0.095520000000     0.281430000000     0.0371275  
H71      H      0.528390000000     0.972020000000     0.441840000000     0.0317737  
H72      H      0.515590000000     0.115910000000     0.183680000000     0.14709    
H73      H      0.474200000000     0.646250000000     0.975090000000     0.0239333  
H74      H      0.545590000000     0.949430000000     0.070820000000     0.0313106  
H75      H      0.427790000000     0.745360000000     0.995010000000     0.0381207  
H76      H      0.559650000000     0.860440000000     0.015140000000     0.0368188  
H77      H      0.534250000000     0.885030000000     0.060310000000     0.0588489  
H78      H      0.551540000000     0.795330000000     0.012760000000     0.0411005  
H79      H      0.472980000000     0.882730000000     0.969370000000     0.071122   
H80      H      0.467770000000     0.704060000000     0.961850000000     0.053983   
H81      H      0.500610000000     0.739680000000     0.062190000000     0.0541941  
H82      H      0.435910000000     0.811180000000     0.997090000000     0.0361091  
H83      H      0.507470000000     0.683550000000     0.074330000000     0.0204393  
H84      H      0.467520000000     0.935840000000     0.957030000000     0.144218   
H85      H      0.441040000000     0.121190000000     0.106050000000     0.0348964  
H86      H      0.534440000000     0.447430000000     0.120320000000     0.0311912  
H87      H      0.424540000000     0.228120000000     0.094630000000     0.0398624  
H88      H      0.514570000000     0.332980000000     0.170880000000     0.0355703  
H89      H      0.530280000000     0.386310000000     0.134470000000     0.0584225  
H90      H      0.522780000000     0.276780000000     0.164250000000     0.03944    
H91      H      0.405290000000     0.329370000000     0.130030000000     0.0690856  
H92      H      0.426060000000     0.168880000000     0.125670000000     0.0547171  
H93      H      0.544500000000     0.259920000000     0.111590000000     0.054955   
H94      H      0.417120000000     0.285010000000     0.100100000000     0.0361581  
H95      H      0.558350000000     0.211890000000     0.091400000000     0.0327331  
H96      H      0.380030000000     0.368510000000     0.117540000000     0.143613   
H97      H      0.956000000000     0.372750000000     0.548290000000     0.0227265  
H98      H      0.671380000000     0.096560000000     0.482450000000     0.0321352  
H99      H      0.860670000000     0.252670000000     0.509520000000     0.0380019  
H100     H      0.754700000000     0.266490000000     0.452190000000     0.0355811  
H101     H      0.737680000000     0.147670000000     0.472310000000     0.0577947  
H102     H      0.819580000000     0.323070000000     0.456700000000     0.0382109  
H103     H      0.708670000000     0.234660000000     0.493760000000     0.0725234  
H104     H      0.895320000000     0.312030000000     0.538440000000     0.0530946  
H105     H      0.883910000000     0.355450000000     0.441830000000     0.0527884  
H106     H      0.794650000000     0.196360000000     0.506760000000     0.0353042  
H107     H      0.943380000000     0.416290000000     0.453240000000     0.0273405  
H108     H      0.646850000000     0.213390000000     0.503940000000     0.145109   
H109     H      0.199520000000     0.634170000000     0.562570000000     0.0296437  
H110     H      0.398760000000     0.959150000000     0.620170000000     0.0303337  
H111     H      0.278200000000     0.728310000000     0.641560000000     0.0391406  
H112     H      0.281910000000     0.847500000000     0.593410000000     0.034217   
H113     H      0.335890000000     0.901190000000     0.629340000000     0.0570711  
H114     H      0.221740000000     0.784160000000     0.588380000000     0.0392584  
H115     H      0.380580000000     0.828830000000     0.601890000000     0.07241    
H116     H      0.250970000000     0.692490000000     0.588570000000     0.0540168  
H117     H      0.166350000000     0.721820000000     0.615740000000     0.0541154  
H118     H      0.338090000000     0.791490000000     0.646860000000     0.0365052  
H119     H      0.114920000000     0.662160000000     0.589780000000     0.0299932  
H120     H      0.442930000000     0.859030000000     0.589560000000     0.145997   
H121     H      0.724980000000     0.600780000000     0.531570000000     0.0293541  
H122     H      0.928690000000     0.476160000000     0.576110000000     0.0220539  
H123     H      0.803140000000     0.549960000000     0.568820000000     0.0388825  
H124     H      0.801340000000     0.462570000000     0.485080000000     0.0354368  
H125     H      0.867100000000     0.474830000000     0.577670000000     0.0585862  
H126     H      0.749500000000     0.478380000000     0.483510000000     0.0381087  
H127     H      0.872560000000     0.505240000000     0.475020000000     0.0727432  
H128     H      0.778370000000     0.587390000000     0.531240000000     0.0529617  
H129     H      0.694790000000     0.464890000000     0.518340000000     0.0528263  
H130     H      0.855240000000     0.534300000000     0.570230000000     0.0376948  
H131     H      0.642690000000     0.479000000000     0.518800000000     0.0197616  
H132     H      0.922950000000     0.509950000000     0.449380000000     0.14545    
H133     H      0.133100000000     0.478650000000     0.440430000000     0.0281942  
H134     H      0.446240000000     0.557450000000     0.511410000000     0.0254698  
H135     H      0.233500000000     0.482000000000     0.543140000000     0.0419119  
H136     H      0.323690000000     0.491960000000     0.460510000000     0.0355958  
H137     H      0.382580000000     0.540390000000     0.489100000000     0.0582667  
H138     H      0.265880000000     0.495960000000     0.442760000000     0.0388475  
H139     H      0.331040000000     0.449550000000     0.562640000000     0.0704116  
H140     H      0.180880000000     0.457010000000     0.449090000000     0.0529178  
H141     H      0.249150000000     0.553700000000     0.513630000000     0.0560899  
H142     H      0.291320000000     0.479070000000     0.561140000000     0.0361983  
H143     H      0.201950000000     0.574300000000     0.504750000000     0.0312746  
H144     H      0.372290000000     0.443000000000     0.598810000000     0.144094   
H145     H      0.053000000000     0.503540000000     0.901990000000     0.0226374  
H146     H      0.012420000000     0.575770000000     0.621140000000     0.028977   
H147     H      0.005060000000     0.483730000000     0.795320000000     0.0377544  
H148     H      0.059680000000     0.608670000000     0.731400000000     0.0374027  
H149     H      0.005240000000     0.576680000000     0.679720000000     0.0589901  
H150     H      0.062160000000     0.610170000000     0.790960000000     0.0385843  
H151     H      0.067360000000     0.515080000000     0.698770000000     0.0722184  
H152     H      0.045900000000     0.498790000000     0.842650000000     0.0523527  
H153     H      0.027580000000     0.597440000000     0.837380000000     0.0540883  
H154     H      0.004780000000     0.482890000000     0.735650000000     0.0362905  
H155     H      0.037110000000     0.602660000000     0.895940000000     0.0304064  
H156     H      0.088880000000     0.500730000000     0.655500000000     0.145214   
H157     H      0.067320000000     0.605520000000     0.129850000000     0.0293411  
H158     H      0.994000000000     0.496710000000     0.399910000000     0.0263205  
H159     H      0.093030000000     0.565410000000     0.232930000000     0.039482   
H160     H      0.972080000000     0.519940000000     0.291650000000     0.0356088  
H161     H      0.985640000000     0.494160000000     0.341310000000     0.0578085  
H162     H      0.968300000000     0.513810000000     0.232240000000     0.0396757  
H163     H      0.088880000000     0.607280000000     0.333650000000     0.0717227  
H164     H      0.074770000000     0.600460000000     0.188540000000     0.0547848  
H165     H      0.981760000000     0.480120000000     0.185910000000     0.0547012  
H166     H      0.096920000000     0.570770000000     0.292330000000     0.0364601  
H167     H      0.975150000000     0.486040000000     0.126360000000     0.0301892  
H168     H      0.119010000000     0.636420000000     0.381140000000     0.144953   
H169     H      0.890100000000     0.490060000000     0.964780000000     0.0320683  
H170     H      0.656900000000     0.152110000000     0.966240000000     0.0184092  
H171     H      0.778070000000     0.377180000000     0.931620000000     0.0376269  
H172     H      0.786870000000     0.263070000000     0.976340000000     0.0362337  
H173     H      0.716540000000     0.207550000000     0.946340000000     0.0571313  
H174     H      0.846460000000     0.324280000000     0.964910000000     0.0368855  
H175     H      0.701090000000     0.284470000000     0.005500000000     0.0729529  
H176     H      0.828910000000     0.429690000000     0.958500000000     0.0535223  
H177     H      0.890090000000     0.372710000000     0.929930000000     0.0508346  
H178     H      0.718890000000     0.316430000000     0.944860000000     0.0369791  
H179     H      0.951100000000     0.433500000000     0.938090000000     0.0211666  
H180     H      0.650180000000     0.257180000000     0.037360000000     0.145715   
H181     H      0.435160000000     0.930330000000     0.072410000000     0.0352334  
H182     H      0.102960000000     0.705150000000     0.073830000000     0.020122   
H183     H      0.329640000000     0.823060000000     0.123330000000     0.0392174  
H184     H      0.212140000000     0.817730000000     0.069060000000     0.0340113  
H185     H      0.158620000000     0.764110000000     0.095130000000     0.0569158  
H186     H      0.272820000000     0.880000000000     0.072640000000     0.0379845  
H187     H      0.232030000000     0.716490000000     0.079530000000     0.0712115  
H188     H      0.374810000000     0.868030000000     0.077410000000     0.0541401  
H189     H      0.321270000000     0.927980000000     0.115490000000     0.0535603  
H190     H      0.268430000000     0.760650000000     0.121040000000     0.034979   
H191     H      0.381740000000     0.989470000000     0.110520000000     0.0340475  
H192     H      0.201660000000     0.653880000000     0.064680000000     0.144822   
H193     H      0.853470000000     0.483270000000     0.033610000000     0.0295568  
H194     H      0.636190000000     0.590330000000     0.981300000000     0.0249647  
H195     H      0.824330000000     0.606300000000     0.073450000000     0.0376962  
H196     H      0.718580000000     0.541190000000     0.987920000000     0.037351   
H197     H      0.699990000000     0.596480000000     0.978540000000     0.058261   
H198     H      0.773160000000     0.529130000000     0.991070000000     0.0390653  
H199     H      0.700520000000     0.571410000000     0.081970000000     0.0731559  
H200     H      0.799130000000     0.495390000000     0.029520000000     0.0530999  
H201     H      0.880080000000     0.618460000000     0.043120000000     0.0513538  
H202     H      0.770270000000     0.618760000000     0.069870000000     0.0349295  
H203     H      0.933040000000     0.605430000000     0.047630000000     0.0262909  
H204     H      0.649880000000     0.564180000000     0.108710000000     0.148975   
H205     H      0.385160000000     0.512280000000     0.114140000000     0.0328103  
H206     H      0.185720000000     0.619260000000     0.994690000000     0.022771   
H207     H      0.296540000000     0.559270000000     0.133100000000     0.0390257  
H208     H      0.297490000000     0.615670000000     0.021860000000     0.0351474  
H209     H      0.248020000000     0.632110000000     0.019080000000     0.0562498  
H210     H      0.357010000000     0.619950000000     0.046430000000     0.0415379  
H211     H      0.191230000000     0.520320000000     0.069060000000     0.0712235  
H212     H      0.329790000000     0.521920000000     0.106840000000     0.0549539  
H213     H      0.407810000000     0.646650000000     0.102360000000     0.0535271  
H214     H      0.237580000000     0.556810000000     0.109670000000     0.0362537  
H215     H      0.462890000000     0.636070000000     0.111580000000     0.0210287  
H216     H      0.126960000000     0.483860000000     0.060790000000     0.144088   
H217     H      0.687270000000     0.597090000000     0.612640000000     0.0299251  
H218     H      0.901030000000     0.936030000000     0.588850000000     0.0203938  
H219     H      0.786140000000     0.708760000000     0.581780000000     0.0409796  
H220     H      0.821230000000     0.824380000000     0.648200000000     0.0347011  
H221     H      0.847930000000     0.875910000000     0.609170000000     0.0560239  
H222     H      0.760600000000     0.763130000000     0.657670000000     0.0376249  
H223     H      0.908930000000     0.815920000000     0.590120000000     0.0717886  
H224     H      0.751170000000     0.654480000000     0.621140000000     0.05362    
H225     H      0.697630000000     0.724980000000     0.626520000000     0.0522226  
H226     H      0.845760000000     0.769650000000     0.571690000000     0.0376869  
H227     H      0.634160000000     0.666950000000     0.618330000000     0.0228198  
H228     H      0.967490000000     0.852210000000     0.568880000000     0.147648   
H229     H      0.401170000000     0.416920000000     0.541350000000     0.0310188  
H230     H      0.183860000000     0.093020000000     0.484780000000     0.0190499  
H231     H      0.307380000000     0.323690000000     0.471680000000     0.037885   
H232     H      0.304870000000     0.200320000000     0.504780000000     0.0356499  
H233     H      0.244080000000     0.150900000000     0.469570000000     0.057669   
H234     H      0.366500000000     0.262190000000     0.507540000000     0.0381935  
H235     H      0.212410000000     0.222540000000     0.519790000000     0.071853   
H236     H      0.344370000000     0.358710000000     0.520850000000     0.0530171  
H237     H      0.418350000000     0.322210000000     0.481310000000     0.0527006  
H238     H      0.245730000000     0.261810000000     0.469370000000     0.0355493  
H239     H      0.475110000000     0.381110000000     0.502580000000     0.0216293  
H240     H      0.154560000000     0.192140000000     0.542410000000     0.145347   
H241     H      0.937330000000     0.064650000000     0.489160000000     0.0257751  
H242     H      0.689400000000     0.092090000000     0.550580000000     0.0277872  
H243     H      0.814750000000     0.987010000000     0.574230000000     0.037626   
H244     H      0.757470000000     0.051850000000     0.503210000000     0.0367331  
H245     H      0.746420000000     0.089160000000     0.539190000000     0.0572665  
H246     H      0.806830000000     0.040930000000     0.482100000000     0.0391705  
H247     H      0.702120000000     0.980830000000     0.594410000000     0.0707933  
H248     H      0.881460000000     0.069700000000     0.501730000000     0.0530304  
H249     H      0.818140000000     0.945930000000     0.523920000000     0.0536432  
H250     H      0.767020000000     0.999760000000     0.596330000000     0.0343921  
H251     H      0.874490000000     0.941590000000     0.510170000000     0.0326207  
H252     H      0.648370000000     0.962510000000     0.621680000000     0.146216   
H253     H      0.161900000000     0.023910000000     0.597220000000     0.0212812  
H254     H      0.431430000000     0.068320000000     0.507090000000     0.0203491  
H255     H      0.245170000000     0.964300000000     0.599500000000     0.0387423  
H256     H      0.292560000000     0.000780000000     0.486700000000     0.0359465  
H257     H      0.365130000000     0.053410000000     0.511800000000     0.0582431  
H258     H      0.229370000000     0.992410000000     0.498460000000     0.0383442  
H259     H      0.332170000000     0.936320000000     0.543740000000     0.0717825  
H260     H      0.219520000000     0.017640000000     0.595350000000     0.053725   
H261     H      0.161470000000     0.931960000000     0.519890000000     0.0529825  
H262     H      0.308150000000     0.971610000000     0.587430000000     0.0369453  
H263     H      0.104330000000     0.938010000000     0.522790000000     0.0270665  
H264     H      0.378090000000     0.919370000000     0.541130000000     0.148149   
H265     H      0.098120000000     0.675660000000     0.458770000000     0.0285132  
H266     H      0.060250000000     0.940370000000     0.439810000000     0.0157778  
H267     H      0.973780000000     0.710280000000     0.428280000000     0.0396452  
H268     H      0.080000000000     0.843840000000     0.456420000000     0.0351403  
H269     H      0.069160000000     0.887580000000     0.424930000000     0.0567535  
H270     H      0.091130000000     0.789180000000     0.464290000000     0.0393871  
H271     H      0.951490000000     0.804910000000     0.449870000000     0.0713261  
H272     H      0.090200000000     0.729020000000     0.434490000000     0.0537561  
H273     H      0.986580000000     0.687590000000     0.488070000000     0.0545466  
H274     H      0.962800000000     0.765290000000     0.418440000000     0.0353351  
H275     H      0.995640000000     0.635890000000     0.512390000000     0.035214   
H276     H      0.915180000000     0.830340000000     0.463010000000     0.146102   
H277     H      0.097270000000     0.151950000000     0.609790000000     0.0245304  
H278     H      0.114320000000     0.453630000000     0.590220000000     0.0276754  
H279     H      0.141510000000     0.282230000000     0.527240000000     0.0375751  
H280     H      0.088980000000     0.331100000000     0.607580000000     0.0359928  
H281     H      0.130510000000     0.403280000000     0.604700000000     0.0571871  
H282     H      0.076720000000     0.264070000000     0.613000000000     0.0392774  
H283     H      0.109370000000     0.368380000000     0.504170000000     0.071118   
H284     H      0.122520000000     0.222100000000     0.613640000000     0.0542565  
H285     H      0.058460000000     0.218900000000     0.523740000000     0.0549312  
H286     H      0.155550000000     0.349830000000     0.522490000000     0.0347758  
H287     H      0.032740000000     0.148830000000     0.520940000000     0.0286713  
H288     H      0.093410000000     0.402490000000     0.468530000000     0.142057   
H289     H      0.963440000000     0.021760000000     0.640240000000     0.0214481  
H290     H      0.041640000000     0.102200000000     0.905260000000     0.0275732  
H291     H      0.933860000000     0.977490000000     0.748720000000     0.0378732  
H292     H      0.056310000000     0.054160000000     0.815560000000     0.037457   
H293     H      0.034790000000     0.091850000000     0.847060000000     0.0591762  
H294     H      0.059390000000     0.043820000000     0.757950000000     0.0387068  
H295     H      0.948210000000     0.971260000000     0.862730000000     0.0721566  
H296     H      0.953660000000     0.018890000000     0.698280000000     0.0527438  
H297     H      0.045710000000     0.992760000000     0.718120000000     0.0535285  
H298     H      0.930780000000     0.988460000000     0.806640000000     0.0361635  
H299     H      0.055000000000     0.996120000000     0.659590000000     0.0255066  
H300     H      0.931210000000     0.952800000000     0.914940000000     0.146607   
H301     H      0.972130000000     0.015500000000     0.411730000000     0.0321751  
H302     H      0.047540000000     0.041100000000     0.156930000000     0.0253994  
H303     H      0.980210000000     0.084850000000     0.313600000000     0.0383589  
H304     H      0.092330000000     0.097670000000     0.256970000000     0.0361246  
H305     H      0.054650000000     0.049800000000     0.215000000000     0.0582556  
H306     H      0.091850000000     0.091450000000     0.316230000000     0.0383333  
H307     H      0.012280000000     0.130290000000     0.204090000000     0.0708204  
H308     H      0.972140000000     0.036970000000     0.355150000000     0.0543966  
H309     H      0.095390000000     0.118840000000     0.367140000000     0.0528259  
H310     H      0.980050000000     0.089380000000     0.253730000000     0.0361794  
H311     H      0.094530000000     0.095540000000     0.423080000000     0.0280513  
H312     H      0.997080000000     0.142330000000     0.152420000000     0.144616   
H313     H      0.961850000000     0.898270000000     0.996370000000     0.0310137  
H314     H      0.663130000000     0.669440000000     0.083710000000     0.0289728  
H315     H      0.851130000000     0.776030000000     0.038090000000     0.0380858  
H316     H      0.738690000000     0.762680000000     0.968590000000     0.035729   
H317     H      0.730340000000     0.707140000000     0.069080000000     0.0580628  
H318     H      0.802340000000     0.819260000000     0.961540000000     0.0402811  
H319     H      0.693170000000     0.697420000000     0.967120000000     0.0710773  
H320     H      0.908550000000     0.831000000000     0.986890000000     0.0533995  
H321     H      0.828220000000     0.862320000000     0.021060000000     0.056098   
H322     H      0.787050000000     0.717440000000     0.044570000000     0.0345237  
H323     H      0.881070000000     0.927880000000     0.030740000000     0.0285979  
H324     H      0.629330000000     0.665860000000     0.955480000000     0.14403    
H325     H      0.163690000000     0.142740000000     0.064600000000     0.0290885  
H326     H      0.374510000000     0.478050000000     0.036870000000     0.0311771  
H327     H      0.269060000000     0.263890000000     0.094320000000     0.0372894  
H328     H      0.251690000000     0.359260000000     0.022630000000     0.0358899  
H329     H      0.311410000000     0.421370000000     0.046590000000     0.0603736  
H330     H      0.194430000000     0.299610000000     0.041160000000     0.0387254  
H331     H      0.352010000000     0.346500000000     0.016370000000     0.0732386  
H332     H      0.222270000000     0.205680000000     0.067890000000     0.0532483  
H333     H      0.153820000000     0.258920000000     0.085070000000     0.0531951  
H334     H      0.326010000000     0.322790000000     0.074750000000     0.0361739  
H335     H      0.095240000000     0.194980000000     0.080850000000     0.0273635  
H336     H      0.412540000000     0.376850000000     0.997310000000     0.147805   
H337     H      0.891610000000     0.013720000000     0.113140000000     0.023885   
H338     H      0.664510000000     0.097910000000     0.022130000000     0.0188579  
H339     H      0.771580000000     0.010620000000     0.111270000000     0.0385449  
H340     H      0.790490000000     0.138930000000     0.070610000000     0.0364689  
H341     H      0.724610000000     0.098430000000     0.034490000000     0.0584194  
H342     H      0.843450000000     0.125420000000     0.068350000000     0.0376555  
H343     H      0.699480000000     0.077850000000     0.136420000000     0.0728742  
H344     H      0.840160000000     0.026230000000     0.126960000000     0.0531862  
H345     H      0.847630000000     0.081060000000     0.031820000000     0.0525648  
H346     H      0.718740000000     0.024810000000     0.114280000000     0.0379496  
H347     H      0.898350000000     0.068650000000     0.019140000000     0.0272145  
H348     H      0.644120000000     0.075180000000     0.150130000000     0.146986   
H349     H      0.086580000000     0.963060000000     0.970270000000     0.0312383  
H350     H      0.390390000000     0.001150000000     0.015510000000     0.031275   
H351     H      0.243880000000     0.060330000000     0.925460000000     0.0391023  
H352     H      0.272900000000     0.988090000000     0.014540000000     0.0353182  
H353     H      0.324770000000     0.982030000000     0.996980000000     0.0581093  
H354     H      0.207550000000     0.978650000000     0.007250000000     0.0373885  
H355     H      0.362130000000     0.101320000000     0.968340000000     0.0708146  
H356     H      0.144540000000     0.958200000000     0.963330000000     0.0527786  
H357     H      0.215550000000     0.083440000000     0.971270000000     0.0541341  
H358     H      0.308880000000     0.068670000000     0.931530000000     0.0356653  
H359     H      0.158240000000     0.087230000000     0.979190000000     0.0266959  
H360     H      0.425910000000     0.144130000000     0.973700000000     0.145521   
H361     H      0.003040000000     0.918400000000     0.087940000000     0.0219838  
H362     H      0.098260000000     0.715450000000     0.973720000000     0.0200569  
H363     H      0.001680000000     0.842090000000     0.010540000000     0.0397192  
H364     H      0.109110000000     0.813890000000     0.030060000000     0.0339004  
H365     H      0.106100000000     0.778650000000     0.983760000000     0.0569063  
H366     H      0.115500000000     0.873130000000     0.052410000000     0.0372647  
H367     H      0.984420000000     0.723030000000     0.002670000000     0.0690802  
H368     H      0.006960000000     0.862120000000     0.073240000000     0.0533699  
H369     H      0.115930000000     0.938840000000     0.028920000000     0.0528362  
H370     H      0.995840000000     0.784230000000     0.986690000000     0.0349863  
H371     H      0.110650000000     0.995060000000     0.043280000000     0.0280135  
H372     H      0.948720000000     0.658760000000     0.993400000000     0.143153   
H373     H      0.033170000000     0.441570000000     0.072740000000     0.0323393  
H374     H      0.964210000000     0.131450000000     0.002800000000     0.017621   
H375     H      0.055540000000     0.357430000000     0.029930000000     0.0378459  
H376     H      0.943220000000     0.232640000000     0.991080000000     0.0343686  
H377     H      0.953320000000     0.184440000000     0.009460000000     0.0552678  
H378     H      0.932230000000     0.284100000000     0.006690000000     0.0364977  
H379     H      0.071420000000     0.265930000000     0.984370000000     0.0697643  
H380     H      0.035010000000     0.382620000000     0.065710000000     0.0525106  
H381     H      0.935210000000     0.342230000000     0.997420000000     0.049955   
H382     H      0.065520000000     0.304360000000     0.019020000000     0.0342645  
H383     H      0.932050000000     0.400180000000     0.008370000000     0.0290351  
H384     H      0.108730000000     0.240000000000     0.976180000000     0.145206   
N1       N      0.509980000000     0.530340000000     0.944190000000    -0.228579   
N2       N      0.536340000000     0.551700000000     0.668210000000    -0.206875   
N3       N      0.550280000000     0.550870000000     0.167370000000    -0.234726   
N4       N      0.558530000000     0.533080000000     0.446510000000    -0.206264   
N5       N      0.573720000000     0.934620000000     0.513300000000    -0.208616   
N6       N      0.593270000000     0.658120000000     0.515650000000    -0.203124   
N7       N      0.551870000000     0.418320000000     0.613980000000    -0.237908   
N8       N      0.524450000000     0.133430000000     0.598080000000    -0.20158    
N9       N      0.562050000000     0.047510000000     0.665180000000    -0.230414   
N10      N      0.520070000000     0.093550000000     0.926500000000    -0.208077   
N11      N      0.534570000000     0.049460000000     0.165380000000    -0.204788   
N12      N      0.514670000000     0.017700000000     0.442420000000    -0.207983   
N13      N      0.516950000000     0.954480000000     0.026010000000    -0.225921   
N14      N      0.492650000000     0.661450000000     0.025290000000    -0.205728   
N15      N      0.472690000000     0.424440000000     0.114890000000    -0.210498   
N16      N      0.500570000000     0.163190000000     0.096670000000    -0.201508   
N17      N      0.652040000000     0.135880000000     0.494480000000    -0.22983    
N18      N      0.953780000000     0.399060000000     0.501700000000    -0.210183   
N19      N      0.425900000000     0.927770000000     0.605340000000    -0.208707   
N20      N      0.153730000000     0.644700000000     0.573370000000    -0.209339   
N21      N      0.936960000000     0.493580000000     0.525440000000    -0.226007   
N22      N      0.680040000000     0.540900000000     0.525550000000    -0.195759   
N23      N      0.426360000000     0.514460000000     0.550620000000    -0.232928   
N24      N      0.163130000000     0.526860000000     0.473100000000    -0.210952   
N25      N      0.044300000000     0.545340000000     0.626000000000    -0.225432   
N26      N      0.046450000000     0.553880000000     0.903250000000    -0.207895   
N27      N      0.047790000000     0.551960000000     0.401260000000    -0.233762   
N28      N      0.019940000000     0.546430000000     0.124030000000    -0.207892   
N29      N      0.644150000000     0.185890000000     0.997330000000    -0.227834   
N30      N      0.925220000000     0.465640000000     0.953750000000    -0.199635   
N31      N      0.135290000000     0.677350000000     0.063440000000    -0.235252   
N32      N      0.412710000000     0.964350000000     0.090890000000    -0.183754   
N33      N      0.631090000000     0.575490000000     0.032550000000    -0.224821   
N34      N      0.897160000000     0.543410000000     0.040610000000    -0.193847   
N35      N      0.152250000000     0.563770000000     0.019150000000    -0.230948   
N36      N      0.428070000000     0.573430000000     0.111720000000    -0.209323   
N37      N      0.934890000000     0.910960000000     0.575480000000    -0.222734   
N38      N      0.656200000000     0.628190000000     0.613120000000    -0.199996   
N39      N      0.163700000000     0.124000000000     0.511710000000    -0.237646   
N40      N      0.442290000000     0.402930000000     0.524070000000    -0.21334    
N41      N      0.662070000000     0.037640000000     0.577640000000    -0.227922   
N42      N      0.910170000000     0.003000000000     0.499690000000    -0.205528   
N43      N      0.420940000000     0.011620000000     0.523720000000    -0.228719   
N44      N      0.129690000000     0.982890000000     0.559040000000    -0.210519   
N45      N      0.001380000000     0.903640000000     0.454110000000    -0.21992    
N46      N      0.047770000000     0.652160000000     0.487570000000    -0.186442   
N47      N      0.100940000000     0.439170000000     0.539270000000    -0.225762   
N48      N      0.063280000000     0.145340000000     0.565030000000    -0.204507   
N49      N      0.000830000000     0.042480000000     0.918290000000    -0.226063   
N50      N      0.010750000000     0.010360000000     0.645710000000    -0.206498   
N51      N      0.024610000000     0.079450000000     0.146010000000    -0.229354   
N52      N      0.033560000000     0.052780000000     0.421080000000    -0.203721   
N53      N      0.639320000000     0.664680000000     0.034440000000    -0.233911   
N54      N      0.925330000000     0.917660000000     0.014590000000    -0.205826   
N55      N      0.400590000000     0.445010000000     0.023550000000    -0.227829   
N56      N      0.125200000000     0.164820000000     0.070350000000    -0.202283   
N57      N      0.646230000000     0.086780000000     0.071700000000    -0.225604   
N58      N      0.899530000000     0.041340000000     0.065610000000    -0.208194   
N59      N      0.414770000000     0.062320000000     0.003130000000    -0.224491   
N60      N      0.118260000000     0.025290000000     0.976040000000    -0.191659   
N61      N      0.037430000000     0.682530000000     0.983380000000    -0.233262   
N62      N      0.055280000000     0.960610000000     0.064680000000    -0.206987   
N63      N      0.024790000000     0.167160000000     0.992650000000    -0.231824   
N64      N      0.983400000000     0.425550000000     0.040090000000    -0.205132   
O1       O      0.003540000000     0.102360000000     0.000060000000    -0.454651   
O2       O      0.989280000000     0.966900000000     0.014100000000    -0.402318   
O3       O      0.042580000000     0.078690000000     0.960430000000    -0.44062    
O4       O      0.946040000000     0.024110000000     0.079010000000    -0.43904    
O5       O      0.999130000000     0.019400000000     0.971200000000    -0.41402    
O6       O      0.952020000000     0.059140000000     0.035820000000    -0.455268   
O7       O      0.948550000000     0.974840000000     0.040940000000    -0.466305   
O8       O      0.063560000000     0.139440000000     0.998110000000    -0.384301   
O9       O      0.004240000000     0.086200000000     0.092930000000    -0.422447   
O10      O      0.052550000000     0.999190000000     0.982340000000    -0.402896   
O11      O      0.097200000000     0.108340000000     0.042150000000    -0.425361   
O12      O      0.013840000000     0.982640000000     0.072930000000    -0.456702   
O13      O      0.063500000000     0.018870000000     0.044820000000    -0.421463   
O14      O      0.059890000000     0.130430000000     0.056190000000    -0.429589   
O15      O      0.020060000000     0.041740000000     0.103670000000    -0.469048   
O16      O      0.092440000000     0.060430000000     0.994860000000    -0.449952   
O17      O      0.016370000000     0.050320000000     0.033430000000    -0.553755   
O18      O      0.066880000000     0.043850000000     0.464960000000    -0.455212   
O19      O      0.023840000000     0.085910000000     0.541310000000    -0.445761   
O20      O      0.944940000000     0.971220000000     0.501280000000    -0.384053   
O21      O      0.111740000000     0.091350000000     0.543970000000    -0.468115   
O22      O      0.975840000000     0.032600000000     0.504070000000    -0.445394   
O23      O      0.120730000000     0.058040000000     0.509130000000    -0.458977   
O24      O      0.063690000000     0.089460000000     0.581420000000    -0.441973   
O25      O      0.004350000000     0.007620000000     0.462550000000    -0.413253   
O26      O      0.078580000000     0.980540000000     0.529420000000    -0.464073   
O27      O      0.958320000000     0.975140000000     0.558580000000    -0.430114   
O28      O      0.969950000000     0.931200000000     0.477630000000    -0.376415   
O29      O      0.046150000000     0.013730000000     0.602410000000    -0.456607   
O30      O      0.003200000000     0.031890000000     0.594370000000    -0.448726   
O31      O      0.033010000000     0.963420000000     0.478620000000    -0.508228   
O32      O      0.104520000000     0.022180000000     0.568480000000    -0.456067   
O33      O      0.985150000000     0.943570000000     0.540700000000    -0.409139   
O34      O      0.035620000000     0.022860000000     0.531400000000    -0.536662   
O35      O      0.987040000000     0.488860000000     0.975400000000    -0.44022    
O36      O      0.007830000000     0.617930000000     0.997800000000    -0.439028   
O37      O      0.923840000000     0.503770000000     0.037970000000    -0.395164   
O38      O      0.056900000000     0.588560000000     0.949090000000    -0.478011   
O39      O      0.962710000000     0.566940000000     0.039540000000    -0.505167   
O40      O      0.055680000000     0.533060000000     0.954990000000    -0.439009   
O41      O      0.066850000000     0.645610000000     0.984340000000    -0.455174   
O42      O      0.958680000000     0.522270000000     0.982550000000    -0.424844   
O43      O      0.086190000000     0.533720000000     0.020290000000    -0.447809   
O44      O      0.028400000000     0.585670000000     0.079380000000    -0.472658   
O45      O      0.962080000000     0.469230000000     0.028640000000    -0.383632   
O46      O      0.110650000000     0.626660000000     0.028270000000    -0.460126   
O47      O      0.071340000000     0.643940000000     0.044810000000    -0.444171   
O48      O      0.021540000000     0.491170000000     0.040980000000    -0.435859   
O49      O      0.114300000000     0.582450000000     0.987130000000    -0.450003   
O50      O      0.989570000000     0.523760000000     0.073580000000    -0.423613   
O51      O      0.033150000000     0.561000000000     0.014040000000    -0.532555   
O52      O      0.997990000000     0.462170000000     0.488100000000    -0.465169   
O53      O      0.030240000000     0.601700000000     0.524780000000    -0.426972   
O54      O      0.989720000000     0.491420000000     0.550420000000    -0.420677   
O55      O      0.087280000000     0.572220000000     0.448250000000    -0.440471   
O56      O      0.998140000000     0.530490000000     0.507640000000    -0.430091   
O57      O      0.032820000000     0.517500000000     0.449410000000    -0.469018   
O58      O      0.078190000000     0.615110000000     0.492250000000    -0.453231   
O59      O      0.007900000000     0.439360000000     0.533630000000    -0.451113   
O60      O      0.100830000000     0.513720000000     0.459670000000    -0.454157   
O61      O      0.028900000000     0.554800000000     0.571970000000    -0.392113   
O62      O      0.083240000000     0.482600000000     0.555710000000    -0.42407    
O63      O      0.136700000000     0.602500000000     0.531720000000    -0.456021   
O64      O      0.091640000000     0.606810000000     0.551570000000    -0.432167   
O65      O      0.068310000000     0.461700000000     0.504990000000    -0.431119   
O66      O      0.138300000000     0.562670000000     0.490520000000    -0.461174   
O67      O      0.067370000000     0.532070000000     0.581550000000    -0.433903   
O68      O      0.064160000000     0.530760000000     0.515620000000    -0.572283   
O69      O      0.455740000000     0.046810000000     0.033250000000    -0.399103   
O70      O      0.519560000000     0.012400000000     0.011220000000    -0.431613   
O71      O      0.534630000000     0.125100000000     0.975870000000    -0.436211   
O72      O      0.475500000000     0.002120000000     0.073440000000    -0.424569   
O73      O      0.516020000000     0.063740000000     0.975670000000    -0.461504   
O74      O      0.448560000000     0.030740000000     0.096310000000    -0.378917   
O75      O      0.542550000000     0.008070000000     0.059060000000    -0.390216   
O76      O      0.478740000000     0.107960000000     0.017330000000    -0.418117   
O77      O      0.522620000000     0.072220000000     0.114720000000    -0.401707   
O78      O      0.594790000000     0.121080000000     0.993150000000    -0.440905   
O79      O      0.538090000000     0.148560000000     0.067050000000    -0.437262   
O80      O      0.587640000000     0.081050000000     0.082870000000    -0.374614   
O81      O      0.596360000000     0.069080000000     0.033170000000    -0.451345   
O82      O      0.481820000000     0.101550000000     0.079920000000    -0.392594   
O83      O      0.534200000000     0.023490000000     0.116330000000    -0.378535   
O84      O      0.589250000000     0.158760000000     0.026780000000    -0.437025   
O85      O      0.532800000000     0.081350000000     0.039960000000    -0.589434   
O86      O      0.470710000000     0.001640000000     0.542050000000    -0.426768   
O87      O      0.593660000000     0.000380000000     0.510720000000    -0.414659   
O88      O      0.534290000000     0.060240000000     0.484010000000    -0.484587   
O89      O      0.485450000000     0.958920000000     0.581380000000    -0.399109   
O90      O      0.531200000000     0.004210000000     0.494520000000    -0.429426   
O91      O      0.466970000000     0.994880000000     0.606070000000    -0.424061   
O92      O      0.540620000000     0.960510000000     0.537530000000    -0.403368   
O93      O      0.485630000000     0.059250000000     0.523510000000    -0.459641   
O94      O      0.540770000000     0.051760000000     0.613450000000    -0.446508   
O95      O      0.604460000000     0.070870000000     0.498490000000    -0.41834    
O96      O      0.549460000000     0.112860000000     0.560810000000    -0.460361   
O97      O      0.596530000000     0.003460000000     0.584270000000    -0.414448   
O98      O      0.619050000000     0.054840000000     0.555050000000    -0.443894   
O99      O      0.496630000000     0.068510000000     0.583280000000    -0.395427   
O100     O      0.548420000000     0.003410000000     0.624450000000    -0.414073   
O101     O      0.595650000000     0.114400000000     0.520460000000    -0.445189   
O102     O      0.548210000000     0.044490000000     0.552200000000    -0.658191   
O103     O      0.466110000000     0.469320000000     0.030810000000    -0.429728   
O104     O      0.525540000000     0.638530000000     0.057640000000    -0.460051   
O105     O      0.450380000000     0.534640000000     0.095940000000    -0.442298   
O106     O      0.493760000000     0.544720000000     0.991940000000    -0.454508   
O107     O      0.492890000000     0.595720000000     0.106310000000    -0.463488   
O108     O      0.526020000000     0.515580000000     0.996030000000    -0.384412   
O109     O      0.496880000000     0.607780000000     0.011850000000    -0.429015   
O110     O      0.444310000000     0.505240000000     0.043190000000    -0.432521   
O111     O      0.571290000000     0.538910000000     0.053060000000    -0.413765   
O112     O      0.558150000000     0.589030000000     0.121500000000    -0.459545   
O113     O      0.450090000000     0.466680000000     0.097680000000    -0.382606   
O114     O      0.574410000000     0.640410000000     0.023430000000    -0.453027   
O115     O      0.592160000000     0.630470000000     0.071700000000    -0.450227   
O116     O      0.510200000000     0.482340000000     0.086950000000    -0.439871   
O117     O      0.577490000000     0.578200000000     0.010490000000    -0.404015   
O118     O      0.510660000000     0.529680000000     0.120860000000    -0.439522   
O119     O      0.517340000000     0.561800000000     0.056290000000    -0.57009    
O120     O      0.507910000000     0.441140000000     0.534340000000    -0.459161   
O121     O      0.556200000000     0.592700000000     0.525100000000    -0.447921   
O122     O      0.470130000000     0.509920000000     0.587570000000    -0.44683    
O123     O      0.588210000000     0.557640000000     0.496620000000    -0.424041   
O124     O      0.492430000000     0.552220000000     0.548420000000    -0.461489   
O125     O      0.546220000000     0.496130000000     0.493580000000    -0.459812   
O126     O      0.616570000000     0.617580000000     0.535470000000    -0.378117   
O127     O      0.469610000000     0.456420000000     0.556310000000    -0.484907   
O128     O      0.615220000000     0.518440000000     0.530960000000    -0.511047   
O129     O      0.526580000000     0.565140000000     0.613880000000    -0.432427   
O130     O      0.522640000000     0.454080000000     0.599860000000    -0.476003   
O131     O      0.622100000000     0.569830000000     0.587070000000    -0.435472   
O132     O      0.594630000000     0.605060000000     0.589970000000    -0.434246   
O133     O      0.574130000000     0.467830000000     0.575240000000    -0.465828   
O134     O      0.655000000000     0.581520000000     0.531210000000    -0.397661   
O135     O      0.533060000000     0.514950000000     0.626070000000    -0.476622   
O136     O      0.547290000000     0.527130000000     0.558490000000    -0.534042   
O137     O      0.541200000000     0.492140000000     0.945440000000    -0.285868   
O138     O      0.608470000000     0.613950000000     0.168110000000    -0.285784   
O139     O      0.639690000000     0.978010000000     0.498390000000    -0.279028   
O140     O      0.498730000000     0.406060000000     0.646590000000    -0.294344   
O141     O      0.581520000000     0.113140000000     0.647400000000    -0.281034   
O142     O      0.520340000000     0.101270000000     0.167380000000    -0.275985   
O143     O      0.481780000000     0.953350000000     0.975710000000    -0.284961   
O144     O      0.403330000000     0.394360000000     0.113270000000    -0.281537   
O145     O      0.634860000000     0.184520000000     0.503660000000    -0.292533   
O146     O      0.451410000000     0.887110000000     0.591620000000    -0.285379   
O147     O      0.938770000000     0.506590000000     0.467580000000    -0.279217   
O148     O      0.398210000000     0.464030000000     0.591990000000    -0.293118   
O149     O      0.079730000000     0.511340000000     0.636750000000    -0.29233    
O150     O      0.103750000000     0.616330000000     0.397890000000    -0.294274   
O151     O      0.636920000000     0.229070000000     0.031840000000    -0.28545    
O152     O      0.174570000000     0.647920000000     0.059590000000    -0.288471   
O153     O      0.632520000000     0.565360000000     0.090750000000    -0.278527   
O154     O      0.120640000000     0.500510000000     0.045780000000    -0.289657   
O155     O      0.970280000000     0.878510000000     0.566260000000    -0.279017   
O156     O      0.144890000000     0.164140000000     0.538320000000    -0.287977   
O157     O      0.640060000000     0.981130000000     0.613120000000    -0.28656    
O158     O      0.401750000000     0.944590000000     0.535960000000    -0.280648   
O159     O      0.934430000000     0.858730000000     0.464320000000    -0.277122   
O160     O      0.090810000000     0.420500000000     0.482780000000    -0.295794   
O161     O      0.949730000000     0.976410000000     0.927540000000    -0.279119   
O162     O      0.002010000000     0.125190000000     0.139090000000    -0.293421   
O163     O      0.618260000000     0.658710000000     0.977460000000    -0.301624   
O164     O      0.422480000000     0.404750000000     0.002040000000    -0.286119   
O165     O      0.632290000000     0.077500000000     0.128650000000    -0.280177   
O166     O      0.436430000000     0.128350000000     0.984720000000    -0.292085   
O167     O      0.968620000000     0.651810000000     0.988990000000    -0.288652   
O168     O      0.090590000000     0.211490000000     0.979020000000    -0.290656   


