data_structure

_audit_creation_method RASPA-1.0
_audit_creation_date 2023-6-4
_audit_author_name 'Poobodin Mano'

_cell_length_a    23.0983
_cell_length_b    23.7687
_cell_length_c    24.1032
_cell_angle_alpha 87.1355
_cell_angle_beta  93.8157
_cell_angle_gamma 120.435
_cell_volume      11382.3

_symmetry_cell_setting          triclinic
_symmetry_space_group_name_Hall 'P 1'
_symmetry_space_group_name_H-M  'P 1'
_symmetry_Int_Tables_number     1

_symmetry_equiv_pos_as_xyz 'x,y,z'

loop_
_atom_site_label
_atom_site_type_symbol
_atom_site_fract_x
_atom_site_fract_y
_atom_site_fract_z
_atom_site_charge
C1       C      0.113790000000     0.203260000000     0.977330000000     0.431252   
C2       C      0.955520000000     0.901340000000     0.043540000000     0.456118   
C3       C      0.046160000000     0.031900000000     0.904720000000     0.462075   
C4       C      0.950460000000     0.058570000000     0.089890000000     0.510235   
C5       C      0.096670000000     0.095940000000     0.177820000000     0.482233   
C6       C      0.224880000000     0.094380000000     0.935580000000     0.417043   
C7       C      0.224520000000     0.177770000000     0.071660000000     0.470938   
C8       C      0.120880000000     0.944760000000     0.088280000000     0.448337   
C9       C      0.061250000000     0.036600000000     0.397320000000     0.364154   
C10      C      0.066620000000     0.178510000000     0.598120000000     0.475024   
C11      C      0.883560000000     0.007640000000     0.488680000000     0.425322   
C12      C      0.170350000000     0.162740000000     0.511800000000     0.464525   
C13      C      0.165240000000     0.014800000000     0.558780000000     0.470594   
C14      C      0.897930000000     0.912350000000     0.592210000000     0.444634   
C15      C      0.997010000000     0.890750000000     0.474540000000     0.378594   
C16      C      0.006270000000     0.032810000000     0.683470000000     0.476868   
C17      C      0.950240000000     0.432500000000     0.985380000000     0.451227   
C18      C      0.124230000000     0.733200000000     0.007710000000     0.46441    
C19      C      0.943830000000     0.541450000000     0.080170000000     0.503629   
C20      C      0.124500000000     0.584680000000     0.906530000000     0.453251   
C21      C      0.221650000000     0.562040000000     0.030510000000     0.483195   
C22      C      0.084610000000     0.566750000000     0.182570000000     0.461069   
C23      C      0.075460000000     0.401350000000     0.032560000000     0.395451   
C24      C      0.228800000000     0.709500000000     0.103660000000     0.468852   
C25      C      0.921060000000     0.397650000000     0.497770000000     0.517014   
C26      C      0.043160000000     0.692870000000     0.535610000000     0.383926   
C27      C      0.911680000000     0.533500000000     0.572110000000     0.468684   
C28      C      0.094120000000     0.573710000000     0.412770000000     0.440302   
C29      C      0.207710000000     0.581010000000     0.523620000000     0.483073   
C30      C      0.047890000000     0.548000000000     0.682290000000     0.461088   
C31      C      0.058380000000     0.399060000000     0.586040000000     0.509449   
C32      C      0.186420000000     0.713800000000     0.582950000000     0.372313   
C33      C      0.461940000000     0.106080000000     0.971470000000     0.452408   
C34      C      0.596120000000     0.938280000000     0.034160000000     0.472967   
C35      C      0.567230000000     0.090040000000     0.901740000000     0.457674   
C36      C      0.462060000000     0.939680000000     0.101440000000     0.463397   
C37      C      0.558290000000     0.082510000000     0.178090000000     0.459373   
C38      C      0.724380000000     0.199610000000     0.978810000000     0.436466   
C39      C      0.561380000000     0.198620000000     0.095450000000     0.454937   
C40      C      0.731510000000     0.085230000000     0.065970000000     0.506852   
C41      C      0.395170000000     0.016150000000     0.516470000000     0.467385   
C42      C      0.543610000000     0.899770000000     0.496920000000     0.445066   
C43      C      0.558950000000     0.048270000000     0.405600000000     0.48004    
C44      C      0.405510000000     0.926980000000     0.645160000000     0.408246   
C45      C      0.570930000000     0.038070000000     0.683040000000     0.467814   
C46      C      0.682900000000     0.177330000000     0.489030000000     0.502058   
C47      C      0.520350000000     0.157680000000     0.586290000000     0.457271   
C48      C      0.671150000000     0.997730000000     0.590580000000     0.450298   
C49      C      0.462780000000     0.396490000000     0.038800000000     0.453744   
C50      C      0.606250000000     0.708440000000     0.046750000000     0.467018   
C51      C      0.441620000000     0.562760000000     0.121130000000     0.509413   
C52      C      0.579450000000     0.545900000000     0.944080000000     0.47271    
C53      C      0.693360000000     0.500600000000     0.017840000000     0.409775   
C54      C      0.553780000000     0.542000000000     0.222610000000     0.472841   
C55      C      0.577130000000     0.424070000000     0.147320000000     0.457948   
C56      C      0.730460000000     0.682780000000     0.119910000000     0.482389   
C57      C      0.405510000000     0.379410000000     0.525430000000     0.464922   
C58      C      0.575590000000     0.687270000000     0.513510000000     0.373693   
C59      C      0.417800000000     0.559670000000     0.614160000000     0.507189   
C60      C      0.543920000000     0.520740000000     0.451380000000     0.459808   
C61      C      0.680240000000     0.551780000000     0.550400000000     0.440032   
C62      C      0.527290000000     0.524750000000     0.715660000000     0.474039   
C63      C      0.503240000000     0.372320000000     0.641680000000     0.458395   
C64      C      0.661620000000     0.691380000000     0.631110000000     0.375773   
C65      C      0.586280000000     0.593060000000     0.853880000000     0.0289238  
C66      C      0.523180000000     0.478930000000     0.865440000000    -0.00836203 
C67      C      0.576610000000     0.586600000000     0.796400000000     0.03618    
C68      C      0.512940000000     0.471560000000     0.807230000000     0.151542   
C69      C      0.586810000000     0.588260000000     0.311880000000     0.0321951  
C70      C      0.515740000000     0.474510000000     0.303800000000    -0.0100155  
C71      C      0.580480000000     0.582370000000     0.369130000000     0.0362807  
C72      C      0.513110000000     0.467350000000     0.362190000000     0.147038   
C73      C      0.611610000000     0.793790000000     0.471020000000     0.0187776  
C74      C      0.500900000000     0.728780000000     0.498580000000    -0.0136129  
C75      C      0.601770000000     0.848100000000     0.465570000000     0.0374177  
C76      C      0.489830000000     0.781990000000     0.490820000000     0.151048   
C77      C      0.566740000000     0.271850000000     0.593050000000     0.01981    
C78      C      0.468530000000     0.201610000000     0.639860000000    -0.016846   
C79      C      0.562460000000     0.325190000000     0.608280000000     0.0339394  
C80      C      0.462600000000     0.255650000000     0.654400000000     0.143883   
C81      C      0.601090000000     0.115600000000     0.754000000000     0.0321192  
C82      C      0.540740000000     0.002730000000     0.774620000000    -0.0114758  
C83      C      0.595240000000     0.129020000000     0.808720000000     0.0343861  
C84      C      0.526620000000     0.015630000000     0.826410000000     0.150121   
C85      C      0.502150000000     0.056970000000     0.262540000000     0.0302861  
C86      C      0.610200000000     0.069860000000     0.262090000000    -0.0102928  
C87      C      0.501500000000     0.044980000000     0.319730000000     0.0332619  
C88      C      0.606930000000     0.051070000000     0.318390000000     0.148138   
C89      C      0.584370000000     0.785830000000     0.082560000000     0.0293572  
C90      C      0.627880000000     0.806390000000     0.993720000000    -0.00761251 
C91      C      0.581500000000     0.842790000000     0.078940000000     0.0311624  
C92      C      0.621240000000     0.863240000000     0.988090000000     0.14497    
C93      C      0.510010000000     0.250230000000     0.138000000000     0.0297356  
C94      C      0.627760000000     0.303260000000     0.136840000000    -0.0123812  
C95      C      0.515100000000     0.308190000000     0.155030000000     0.0416786  
C96      C      0.633080000000     0.361210000000     0.155350000000     0.154386   
C97      C      0.799380000000     0.230670000000     0.476820000000     0.0332264  
C98      C      0.742930000000     0.290470000000     0.467290000000    -0.00783431 
C99      C      0.860980000000     0.288150000000     0.473760000000     0.0345974  
C100     C      0.805080000000     0.349020000000     0.468870000000     0.150998   
C101     C      0.290970000000     0.881400000000     0.626850000000     0.0322895  
C102     C      0.332640000000     0.819220000000     0.673160000000    -0.0104716  
C103     C      0.240240000000     0.825510000000     0.600570000000     0.035628   
C104     C      0.275400000000     0.761370000000     0.654760000000     0.151443   
C105     C      0.791660000000     0.585650000000     0.521520000000     0.0246208  
C106     C      0.740740000000     0.502330000000     0.589010000000    -0.0183398  
C107     C      0.848980000000     0.578930000000     0.527450000000     0.0337291  
C108     C      0.795280000000     0.491830000000     0.592200000000     0.151374   
C109     C      0.364140000000     0.623550000000     0.602740000000     0.0283517  
C110     C      0.340440000000     0.541570000000     0.539220000000    -0.0133901  
C111     C      0.310830000000     0.629320000000     0.577620000000     0.0259415  
C112     C      0.291240000000     0.551100000000     0.511190000000     0.147916   
C113     C      0.098540000000     0.622700000000     0.819870000000     0.0291699  
C114     C      0.110310000000     0.529890000000     0.822730000000    -0.0105485  
C115     C      0.079340000000     0.613150000000     0.763030000000     0.0359891  
C116     C      0.097860000000     0.523860000000     0.764870000000     0.150093   
C117     C      0.107850000000     0.626850000000     0.266530000000     0.0294488  
C118     C      0.094540000000     0.521960000000     0.271190000000    -0.0104864  
C119     C      0.113660000000     0.629750000000     0.325110000000     0.0344264  
C120     C      0.098880000000     0.523660000000     0.329800000000     0.145656   
C121     C      0.776940000000     0.314620000000     0.979130000000     0.032185   
C122     C      0.831510000000     0.268800000000     0.936470000000    -0.0102838  
C123     C      0.833960000000     0.376390000000     0.975350000000     0.034254   
C124     C      0.890970000000     0.331980000000     0.934350000000     0.145518   
C125     C      0.347330000000     0.767210000000     0.123140000000     0.0261105  
C126     C      0.286100000000     0.821250000000     0.127450000000    -0.00879018 
C127     C      0.407650000000     0.827350000000     0.123980000000     0.0367878  
C128     C      0.345860000000     0.881960000000     0.124180000000     0.148773   
C129     C      0.823720000000     0.469450000000     0.075340000000     0.0261498  
C130     C      0.873290000000     0.570150000000     0.026290000000    -0.0118405  
C131     C      0.760430000000     0.456450000000     0.052870000000     0.0335869  
C132     C      0.810720000000     0.558140000000     0.004710000000     0.150333   
C133     C      0.340410000000     0.617570000000     0.047200000000     0.0350385  
C134     C      0.270530000000     0.524790000000     0.101620000000    -0.0101251  
C135     C      0.396890000000     0.621360000000     0.075490000000     0.0380716  
C136     C      0.326910000000     0.526420000000     0.128370000000     0.149963   
C137     C      0.735400000000     0.804290000000     0.652970000000     0.0214976  
C138     C      0.779970000000     0.740990000000     0.626120000000    -0.0114586  
C139     C      0.796850000000     0.861300000000     0.642080000000     0.0328969  
C140     C      0.842860000000     0.797560000000     0.619080000000     0.153011   
C141     C      0.347330000000     0.268910000000     0.497730000000     0.0244154  
C142     C      0.293950000000     0.331340000000     0.487310000000    -0.0132671  
C143     C      0.284440000000     0.212090000000     0.494710000000     0.0385225  
C144     C      0.230530000000     0.274450000000     0.483120000000     0.145347   
C145     C      0.829080000000     0.058820000000     0.523690000000     0.00620757 
C146     C      0.773960000000     0.944050000000     0.524260000000    -0.0148262  
C147     C      0.778510000000     0.055860000000     0.553950000000     0.0156477  
C148     C      0.724690000000     0.940580000000     0.558110000000     0.147269   
C149     C      0.275230000000     0.958800000000     0.519120000000     0.0266465  
C150     C      0.339290000000     0.066750000000     0.550230000000    -0.0046402  
C151     C      0.216730000000     0.956860000000     0.535100000000     0.0362024  
C152     C      0.282340000000     0.062730000000     0.571640000000     0.149644   
C153     C      0.980140000000     0.786120000000     0.454360000000     0.0290107  
C154     C      0.024500000000     0.834800000000     0.541620000000    -0.0114143  
C155     C      0.998450000000     0.739230000000     0.469230000000     0.0338173  
C156     C      0.042740000000     0.789280000000     0.557160000000     0.148909   
C157     C      0.015710000000     0.235330000000     0.625380000000     0.0329776  
C158     C      0.130890000000     0.293000000000     0.606650000000    -0.012303   
C159     C      0.014490000000     0.293060000000     0.623630000000     0.0323227  
C160     C      0.129610000000     0.351760000000     0.602760000000     0.147808   
C161     C      0.012960000000     0.074220000000     0.825770000000     0.029999   
C162     C      0.998090000000     0.968440000000     0.824430000000    -0.0132736  
C163     C      0.999840000000     0.072420000000     0.768460000000     0.036156   
C164     C      0.989920000000     0.968190000000     0.766390000000     0.151034   
C165     C      0.127380000000     0.066550000000     0.319480000000     0.0272304  
C166     C      0.032880000000     0.080160000000     0.315350000000    -0.0139282  
C167     C      0.138910000000     0.086220000000     0.264710000000     0.0378499  
C168     C      0.046540000000     0.104070000000     0.260130000000     0.152036   
C169     C      0.891710000000     0.784830000000     0.055930000000     0.0243533  
C170     C      0.862130000000     0.851930000000     0.100660000000    -0.0187166  
C171     C      0.836440000000     0.730020000000     0.078810000000     0.0280924  
C172     C      0.809690000000     0.797860000000     0.126530000000     0.152992   
C173     C      0.299370000000     0.287430000000     0.093580000000     0.0292862  
C174     C      0.341080000000     0.222870000000     0.062680000000    -0.00534684 
C175     C      0.357710000000     0.343030000000     0.078640000000     0.0305244  
C176     C      0.399740000000     0.278480000000     0.046230000000     0.147082   
C177     C      0.812200000000     0.075520000000     0.127040000000     0.0295964  
C178     C      0.811990000000     0.068170000000     0.029480000000    -0.00774378 
C179     C      0.862630000000     0.059030000000     0.133370000000     0.0317482  
C180     C      0.858290000000     0.048210000000     0.035570000000     0.154746   
C181     C      0.404180000000     0.159490000000     0.932280000000     0.0297308  
C182     C      0.349540000000     0.044960000000     0.934600000000    -0.0154032  
C183     C      0.342070000000     0.156070000000     0.921760000000     0.0340064  
C184     C      0.287490000000     0.041120000000     0.921650000000     0.148282   
C185     C      0.074070000000     0.829730000000     0.084400000000     0.0264898  
C186     C      0.182160000000     0.900780000000     0.052530000000    -0.0228601  
C187     C      0.073060000000     0.778150000000     0.058160000000     0.0232308  
C188     C      0.182060000000     0.849370000000     0.025970000000     0.145743   
C189     C      0.147680000000     0.358340000000     0.032720000000     0.0252141  
C190     C      0.032190000000     0.294250000000     0.008760000000    -0.0174242  
C191     C      0.158950000000     0.310960000000     0.011260000000     0.0316373  
C192     C      0.043140000000     0.248550000000     0.984230000000     0.146347   
Co1      Co     0.077690000000     0.136390000000     0.063610000000     1.16159    
Co2      Co     0.092570000000     0.986160000000     0.996190000000     0.952938   
Co3      Co     0.152350000000     0.110570000000     0.983960000000     1.06089    
Co4      Co     0.030220000000     0.998090000000     0.108480000000     1.09204    
Co5      Co     0.076910000000     0.035940000000     0.487650000000     1.03249    
Co6      Co     0.962980000000     0.058320000000     0.574710000000     1.16566    
Co7      Co     0.975070000000     0.964810000000     0.496010000000     0.853175   
Co8      Co     0.109610000000     0.079020000000     0.610320000000     1.0926     
Co9      Co     0.081940000000     0.502520000000     0.006470000000     1.06285    
Co10     Co     0.076270000000     0.642090000000     0.081730000000     1.20128    
Co11     Co     0.024930000000     0.479920000000     0.091500000000     0.842412   
Co12     Co     0.186050000000     0.653140000000     0.002420000000     1.05789    
Co13     Co     0.070510000000     0.479630000000     0.492370000000     1.17095    
Co14     Co     0.050170000000     0.608210000000     0.573780000000     0.845722   
Co15     Co     0.975100000000     0.460660000000     0.599780000000     1.15864    
Co16     Co     0.117460000000     0.628280000000     0.527270000000     0.763981   
Co17     Co     0.486320000000     0.058200000000     0.068050000000     1.06712    
Co18     Co     0.627620000000     0.055260000000     0.978580000000     1.12032    
Co19     Co     0.604810000000     0.171480000000     0.003930000000     1.04274    
Co20     Co     0.611160000000     0.038090000000     0.112440000000     1.08256    
Co21     Co     0.486660000000     0.021090000000     0.596890000000     1.05281    
Co22     Co     0.636110000000     0.049670000000     0.510900000000     1.12601    
Co23     Co     0.536750000000     0.107400000000     0.490300000000     1.11494    
Co24     Co     0.529930000000     0.944290000000     0.595230000000     0.916568   
Co25     Co     0.599170000000     0.488780000000     0.050110000000     1.07424    
Co26     Co     0.584510000000     0.629010000000     0.136910000000     1.12693    
Co27     Co     0.486250000000     0.478270000000     0.114440000000     1.10774    
Co28     Co     0.661920000000     0.616540000000     0.033050000000     0.977537   
Co29     Co     0.552960000000     0.455590000000     0.558810000000     1.12459    
Co30     Co     0.554100000000     0.604550000000     0.614190000000     0.909512   
Co31     Co     0.435260000000     0.447510000000     0.620490000000     1.19534    
Co32     Co     0.591830000000     0.600790000000     0.541560000000     0.838968   
H1       H      0.597950000000     0.631310000000     0.771490000000     0.0438376  
H2       H      0.616370000000     0.641980000000     0.870020000000     0.0405985  
H3       H      0.503140000000     0.435380000000     0.891850000000     0.0552775  
H4       H      0.482150000000     0.399410000000     0.746030000000     0.107524   
H5       H      0.462290000000     0.369270000000     0.814350000000     0.0912361  
H6       H      0.607090000000     0.626710000000     0.393080000000     0.0450712  
H7       H      0.616390000000     0.636860000000     0.293970000000     0.0345197  
H8       H      0.488780000000     0.431320000000     0.278440000000     0.0446405  
H9       H      0.467810000000     0.397380000000     0.426680000000     0.107711   
H10      H      0.451160000000     0.365490000000     0.359210000000     0.090568   
H11      H      0.644050000000     0.894610000000     0.453340000000     0.0318971  
H12      H      0.660520000000     0.800970000000     0.462890000000     0.0415499  
H13      H      0.458670000000     0.681610000000     0.509640000000     0.0602507  
H14      H      0.413150000000     0.805630000000     0.478300000000     0.118456   
H15      H      0.385440000000     0.723320000000     0.497430000000     0.0993178  
H16      H      0.600950000000     0.372440000000     0.593370000000     0.00602252 
H17      H      0.608770000000     0.281370000000     0.568730000000     0.0373157  
H18      H      0.431560000000     0.153130000000     0.654080000000     0.0525473  
H19      H      0.409230000000     0.282850000000     0.704540000000     0.0997122  
H20      H      0.378720000000     0.198030000000     0.702170000000     0.0887778  
H21      H      0.620580000000     0.179500000000     0.821330000000     0.0373602  
H22      H      0.627340000000     0.156120000000     0.725140000000     0.0411148  
H23      H      0.515510000000     0.952330000000     0.761530000000     0.0469044  
H24      H      0.454540000000     0.972830000000     0.888180000000     0.121119   
H25      H      0.451940000000     0.917750000000     0.840080000000     0.0933103  
H26      H      0.457840000000     0.037300000000     0.340630000000     0.0396744  
H27      H      0.458880000000     0.056600000000     0.241660000000     0.0347874  
H28      H      0.652870000000     0.076990000000     0.239860000000     0.038244   
H29      H      0.692550000000     0.041760000000     0.317010000000     0.0869511  
H30      H      0.646130000000     0.007640000000     0.376840000000     0.105359   
H31      H      0.565050000000     0.855380000000     0.115040000000     0.0313794  
H32      H      0.569420000000     0.757780000000     0.121200000000     0.0254819  
H33      H      0.647000000000     0.793060000000     0.959880000000     0.0444474  
H34      H      0.645170000000     0.945650000000     0.935420000000     0.092756   
H35      H      0.661900000000     0.887480000000     0.909350000000     0.0908609  
H36      H      0.468530000000     0.307440000000     0.160670000000     0.0355611  
H37      H      0.460340000000     0.207720000000     0.132080000000     0.0385083  
H38      H      0.673610000000     0.302310000000     0.131910000000     0.0554983  
H39      H      0.699650000000     0.452700000000     0.190680000000     0.111706   
H40      H      0.737190000000     0.407100000000     0.172890000000     0.092842   
H41      H      0.906250000000     0.284830000000     0.478080000000     0.0322205  
H42      H      0.798990000000     0.184810000000     0.481280000000     0.0220695  
H43      H      0.696780000000     0.292270000000     0.464530000000     0.0438244  
H44      H      0.850950000000     0.451570000000     0.462270000000     0.109128   
H45      H      0.761610000000     0.408360000000     0.460170000000     0.0915512  
H46      H      0.205830000000     0.830320000000     0.570600000000     0.0315005  
H47      H      0.294770000000     0.927960000000     0.617660000000     0.0447824  
H48      H      0.371800000000     0.816420000000     0.698540000000     0.0385593  
H49      H      0.226880000000     0.657910000000     0.663670000000     0.118288   
H50      H      0.300080000000     0.702040000000     0.706230000000     0.0902609  
H51      H      0.891220000000     0.611630000000     0.502790000000     0.0412003  
H52      H      0.791580000000     0.621980000000     0.492520000000     0.0415601  
H53      H      0.698830000000     0.470350000000     0.614330000000     0.0533457  
H54      H      0.818120000000     0.417360000000     0.615180000000     0.106189   
H55      H      0.744440000000     0.407000000000     0.641810000000     0.0912972  
H56      H      0.301020000000     0.664990000000     0.593830000000     0.0407791  
H57      H      0.392870000000     0.653850000000     0.637810000000     0.0354952  
H58      H      0.353200000000     0.508440000000     0.521270000000     0.0591681  
H59      H      0.241250000000     0.539970000000     0.432100000000     0.106904   
H60      H      0.282700000000     0.494890000000     0.443230000000     0.0884551  
H61      H      0.065460000000     0.646220000000     0.741790000000     0.0449852  
H62      H      0.099460000000     0.663080000000     0.839770000000     0.0422049  
H63      H      0.124190000000     0.497200000000     0.844850000000     0.0571069  
H64      H      0.120990000000     0.487030000000     0.696380000000     0.110532   
H65      H      0.128480000000     0.454530000000     0.761780000000     0.0928806  
H66      H      0.119680000000     0.672740000000     0.344480000000     0.0391789  
H67      H      0.111570000000     0.668740000000     0.243340000000     0.0374351  
H68      H      0.088290000000     0.479050000000     0.251440000000     0.0493244  
H69      H      0.111720000000     0.473950000000     0.400880000000     0.0718703  
H70      H      0.095610000000     0.433590000000     0.337460000000     0.0864876  
H71      H      0.832040000000     0.417450000000     0.989710000000     0.032874   
H72      H      0.733300000000     0.311220000000     0.996950000000     0.0261658  
H73      H      0.831920000000     0.226980000000     0.920900000000     0.0404834  
H74      H      0.988210000000     0.384540000000     0.904220000000     0.122894   
H75      H      0.944800000000     0.299030000000     0.892660000000     0.0915907  
H76      H      0.454260000000     0.827370000000     0.121610000000     0.0261917  
H77      H      0.349890000000     0.723090000000     0.120640000000     0.0380852  
H78      H      0.238930000000     0.820590000000     0.129190000000     0.0494544  
H79      H      0.296210000000     0.934730000000     0.130610000000     0.0894009  
H80      H      0.384130000000     0.983800000000     0.126160000000     0.0820094  
H81      H      0.716740000000     0.410790000000     0.064220000000     0.0409431  
H82      H      0.827040000000     0.432930000000     0.101910000000     0.0352666  
H83      H      0.916710000000     0.615030000000     0.012530000000     0.0597949  
H84      H      0.763410000000     0.590670000000     0.943740000000     0.100936   
H85      H      0.851380000000     0.642920000000     0.953910000000     0.0897629  
H86      H      0.446100000000     0.658900000000     0.062660000000     0.0398684  
H87      H      0.347890000000     0.653940000000     0.015080000000     0.0364181  
H88      H      0.221170000000     0.486870000000     0.113940000000     0.0567465  
H89      H      0.358640000000     0.480200000000     0.190070000000     0.0938966  
H90      H      0.270140000000     0.443310000000     0.178350000000     0.0896232  
H91      H      0.800490000000     0.907830000000     0.648450000000     0.0362139  
H92      H      0.694760000000     0.809050000000     0.667580000000     0.0393842  
H93      H      0.775800000000     0.693910000000     0.621060000000     0.0619878  
H94      H      0.945990000000     0.830640000000     0.623010000000     0.105091   
H95      H      0.893310000000     0.745260000000     0.614600000000     0.0989016  
H96      H      0.282370000000     0.165510000000     0.498850000000     0.0413979  
H97      H      0.391560000000     0.264320000000     0.505520000000     0.03441    
H98      H      0.296470000000     0.378290000000     0.485130000000     0.0448624  
H99      H      0.126140000000     0.239150000000     0.472870000000     0.113392   
H100     H      0.178190000000     0.325360000000     0.470970000000     0.0899038  
H101     H      0.782750000000     0.101910000000     0.563680000000     0.0322585  
H102     H      0.870340000000     0.106700000000     0.512700000000     0.0277161  
H103     H      0.772210000000     0.899050000000     0.514750000000     0.0565477  
H104     H      0.651240000000     0.875380000000     0.613770000000     0.113183   
H105     H      0.678930000000     0.839150000000     0.568500000000     0.100015   
H106     H      0.168410000000     0.914670000000     0.524070000000     0.034538   
H107     H      0.270950000000     0.916910000000     0.499120000000     0.037292   
H108     H      0.386350000000     0.112200000000     0.554670000000     0.0523647  
H109     H      0.250370000000     0.111950000000     0.621000000000     0.0928411  
H110     H      0.335380000000     0.157700000000     0.602850000000     0.0909515  
H111     H      0.986820000000     0.701450000000     0.439770000000     0.0415436  
H112     H      0.958120000000     0.785830000000     0.413150000000     0.0388809  
H113     H      0.037810000000     0.873750000000     0.570460000000     0.0561475  
H114     H      0.106410000000     0.776420000000     0.619270000000     0.1173     
H115     H      0.087600000000     0.836280000000     0.632970000000     0.0931244  
H116     H      0.966630000000     0.289620000000     0.629540000000     0.0340624  
H117     H      0.969320000000     0.189930000000     0.632810000000     0.0220286  
H118     H      0.177060000000     0.293420000000     0.599620000000     0.039802   
H119     H      0.192320000000     0.454390000000     0.600350000000     0.108592   
H120     H      0.233630000000     0.409580000000     0.593330000000     0.0924713  
H121     H      0.002290000000     0.115180000000     0.747840000000     0.0351684  
H122     H      0.024210000000     0.117700000000     0.847610000000     0.0390161  
H123     H      0.996740000000     0.926370000000     0.845510000000     0.0497429  
H124     H      0.966260000000     0.909640000000     0.695940000000     0.103664   
H125     H      0.972700000000     0.872960000000     0.760130000000     0.0911383  
H126     H      0.180210000000     0.085700000000     0.246060000000     0.035147   
H127     H      0.161520000000     0.053000000000     0.340830000000     0.0522156  
H128     H      0.991510000000     0.079050000000     0.335250000000     0.0563585  
H129     H      0.017720000000     0.151420000000     0.196090000000     0.1095     
H130     H      0.969500000000     0.126550000000     0.255100000000     0.0888759  
H131     H      0.827500000000     0.682510000000     0.067700000000     0.0355837  
H132     H      0.923690000000     0.777790000000     0.029560000000     0.0310963  
H133     H      0.871260000000     0.899540000000     0.111790000000     0.0493893  
H134     H      0.747460000000     0.771130000000     0.195130000000     0.105673   
H135     H      0.791270000000     0.855310000000     0.178150000000     0.0914653  
H136     H      0.361860000000     0.389220000000     0.087600000000     0.0145906  
H137     H      0.260430000000     0.293210000000     0.110680000000     0.0333739  
H138     H      0.334880000000     0.175540000000     0.054420000000     0.0608027  
H139     H      0.485500000000     0.304770000000     0.999350000000     0.115367   
H141     H      0.884610000000     0.059280000000     0.174570000000     0.0274946  
H142     H      0.792820000000     0.083400000000     0.163810000000     0.0303246  
H143     H      0.793350000000     0.070710000000     0.987340000000     0.0514842  
H144     H      0.902830000000     0.006650000000     0.990140000000     0.11925    
H146     H      0.341720000000     0.201580000000     0.918620000000     0.0454301  
H147     H      0.449340000000     0.207000000000     0.934650000000     0.0410382  
H148     H      0.351420000000     0.000210000000     0.937410000000     0.0471457  
H149     H      0.188020000000     0.978470000000     0.891060000000     0.100622   
H150     H      0.237000000000     0.940840000000     0.905330000000     0.0883659  
H151     H      0.028430000000     0.730520000000     0.062590000000     0.0187641  
H152     H      0.029840000000     0.820030000000     0.105540000000     0.0369041  
H153     H      0.225460000000     0.949540000000     0.048300000000     0.0491922  
H154     H      0.235890000000     0.833050000000     0.966550000000     0.10645    
H155     H      0.278470000000     0.910580000000     0.996650000000     0.0919233  
H156     H      0.209570000000     0.318870000000     0.014190000000     0.0399693  
H157     H      0.190530000000     0.403410000000     0.047460000000     0.034265   
H158     H      0.982240000000     0.288320000000     0.004630000000     0.0453212  
H159     H      0.996980000000     0.170080000000     0.927860000000     0.114941   
H160     H      0.943340000000     0.195480000000     0.951750000000     0.0909303  
N1       N      0.561050000000     0.539280000000     0.888360000000    -0.179252   
N2       N      0.539360000000     0.526450000000     0.772560000000    -0.202879   
N3       N      0.482280000000     0.409850000000     0.787360000000    -0.213194   
N4       N      0.552800000000     0.534660000000     0.279230000000    -0.182377   
N5       N      0.544810000000     0.522370000000     0.394540000000    -0.20271    
N6       N      0.475540000000     0.406420000000     0.384460000000    -0.215935   
N7       N      0.563110000000     0.735890000000     0.492890000000    -0.156608   
N8       N      0.543510000000     0.843860000000     0.481800000000    -0.200095   
N9       N      0.425740000000     0.770320000000     0.490630000000    -0.212905   
N10      N      0.518640000000     0.209800000000     0.606990000000    -0.176757   
N11      N      0.508870000000     0.317670000000     0.636170000000    -0.210316   
N12      N      0.413170000000     0.245130000000     0.688390000000    -0.214256   
N13      N      0.575590000000     0.052500000000     0.737860000000    -0.179227   
N14      N      0.560300000000     0.078980000000     0.845600000000    -0.20727    
N15      N      0.476140000000     0.965460000000     0.854650000000    -0.209965   
N16      N      0.557560000000     0.071880000000     0.234350000000    -0.183187   
N17      N      0.555250000000     0.045480000000     0.348450000000    -0.207045   
N18      N      0.652720000000     0.034950000000     0.340190000000    -0.211569   
N19      N      0.607820000000     0.767290000000     0.040430000000    -0.180692   
N20      N      0.597460000000     0.880900000000     0.031660000000    -0.204036   
N21      N      0.643330000000     0.901100000000     0.941320000000    -0.21164    
N22      N      0.566080000000     0.249790000000     0.123870000000    -0.175417   
N23      N      0.576040000000     0.365590000000     0.156360000000    -0.20173    
N24      N      0.694130000000     0.411000000000     0.172910000000    -0.213569   
N25      N      0.741120000000     0.232530000000     0.476320000000    -0.189369   
N26      N      0.863690000000     0.346730000000     0.475600000000    -0.215879   
N27      N      0.806140000000     0.406840000000     0.464090000000    -0.213404   
N28      N      0.342120000000     0.878600000000     0.655240000000    -0.166895   
N29      N      0.233980000000     0.765870000000     0.612860000000    -0.185503   
N30      N      0.266430000000     0.703330000000     0.675690000000    -0.215206   
N31      N      0.737940000000     0.547900000000     0.553110000000    -0.176221   
N32      N      0.852010000000     0.533720000000     0.564060000000    -0.204552   
N33      N      0.787470000000     0.437030000000     0.619760000000    -0.211713   
N34      N      0.374530000000     0.575620000000     0.586220000000    -0.187238   
N35      N      0.270390000000     0.588600000000     0.535460000000    -0.210104   
N36      N      0.267820000000     0.525170000000     0.459790000000    -0.21229    
N37      N      0.111220000000     0.579380000000     0.849990000000    -0.173958   
N38      N      0.075680000000     0.561930000000     0.735930000000    -0.201163   
N39      N      0.113780000000     0.484130000000     0.738870000000    -0.210213   
N40      N      0.096300000000     0.572110000000     0.239650000000    -0.176938   
N41      N      0.104800000000     0.576800000000     0.356710000000    -0.197983   
N42      N      0.100730000000     0.473530000000     0.358270000000    -0.208604   
N43      N      0.776810000000     0.259990000000     0.963090000000    -0.176956   
N44      N      0.892850000000     0.384610000000     0.958520000000    -0.199345   
N45      N      0.945420000000     0.338940000000     0.909670000000    -0.215878   
N46      N      0.286590000000     0.764720000000     0.121200000000    -0.180384   
N47      N      0.406390000000     0.884200000000     0.119380000000    -0.205017   
N48      N      0.342160000000     0.937150000000     0.126460000000    -0.212841   
N49      N      0.880020000000     0.526650000000     0.062170000000    -0.18583    
N50      N      0.753890000000     0.503000000000     0.021530000000    -0.192629   
N51      N      0.807880000000     0.600450000000     0.965810000000    -0.212349   
N52      N      0.277530000000     0.567940000000     0.059120000000    -0.180645   
N53      N      0.389870000000     0.574070000000     0.113620000000    -0.21461    
N54      N      0.318190000000     0.480150000000     0.167910000000    -0.216575   
N55      N      0.725080000000     0.744910000000     0.638770000000    -0.158443   
N56      N      0.847940000000     0.857910000000     0.619030000000    -0.202239   
N57      N      0.897710000000     0.791160000000     0.616120000000    -0.211443   
N58      N      0.350860000000     0.327730000000     0.500220000000    -0.183111   
N59      N      0.226630000000     0.215190000000     0.492020000000    -0.2047     
N60      N      0.174530000000     0.279700000000     0.475390000000    -0.217416   
N61      N      0.827460000000     0.003100000000     0.509530000000    -0.183487   
N62      N      0.725000000000     0.997130000000     0.569820000000    -0.213702   
N63      N      0.680280000000     0.881440000000     0.580310000000    -0.214084   
N64      N      0.336400000000     0.013720000000     0.527370000000    -0.178735   
N65      N      0.220480000000     0.008060000000     0.562280000000    -0.206146   
N66      N      0.289430000000     0.114180000000     0.599890000000    -0.212486   
N67      N      0.996350000000     0.834960000000     0.490160000000    -0.158356   
N68      N      0.029040000000     0.740640000000     0.520490000000    -0.188445   
N69      N      0.079440000000     0.799210000000     0.606400000000    -0.212339   
N70      N      0.072680000000     0.235380000000     0.613530000000    -0.185124   
N71      N      0.068950000000     0.349800000000     0.606230000000    -0.214271   
N72      N      0.188510000000     0.409030000000     0.597070000000    -0.213253   
N73      N      0.016150000000     0.023870000000     0.852770000000    -0.178842   
N74      N      0.995300000000     0.022650000000     0.738780000000    -0.210917   
N75      N      0.976200000000     0.913870000000     0.738800000000    -0.213092   
N76      N      0.072450000000     0.060150000000     0.343940000000    -0.154485   
N77      N      0.096570000000     0.101010000000     0.233910000000    -0.211577   
N78      N      0.008390000000     0.127430000000     0.234510000000    -0.213321   
N79      N      0.902890000000     0.845630000000     0.065250000000    -0.182457   
N80      N      0.792810000000     0.736350000000     0.111010000000    -0.212403   
N81      N      0.778960000000     0.808130000000     0.168020000000    -0.212516   
N82      N      0.288710000000     0.227910000000     0.080120000000    -0.181199   
N83      N      0.407010000000     0.339200000000     0.052970000000    -0.209431   
N84      N      0.443640000000     0.268570000000     0.019350000000    -0.166676   
N85      N      0.787420000000     0.080010000000     0.074860000000    -0.189433   
N86      N      0.887550000000     0.049060000000     0.087290000000    -0.217666   
N87      N      0.871950000000     0.026980000000     0.989420000000    -0.165248   
N88      N      0.406320000000     0.103910000000     0.945040000000    -0.179443   
N89      N      0.283430000000     0.096890000000     0.923120000000    -0.193244   
N90      N      0.233310000000     0.982770000000     0.906620000000    -0.211888   
N91      N      0.126930000000     0.891580000000     0.078630000000    -0.182932   
N92      N      0.126520000000     0.787280000000     0.028760000000    -0.212768   
N93      N      0.235730000000     0.864080000000     0.995430000000    -0.214134   
N94      N      0.084160000000     0.349070000000     0.032000000000    -0.165514   
N95      N      0.106530000000     0.255400000000     0.988400000000    -0.212167   
N96      N      0.991130000000     0.200580000000     0.953730000000    -0.209776   
O1       O      0.068240000000     0.148590000000     0.989520000000    -0.473425   
O2       O      0.005850000000     0.903860000000     0.022500000000    -0.387288   
O3       O      0.088770000000     0.088530000000     0.921290000000    -0.414809   
O4       O      0.971230000000     0.032410000000     0.126400000000    -0.442482   
O5       O      0.040470000000     0.983190000000     0.932690000000    -0.446369   
O6       O      0.989390000000     0.095070000000     0.054330000000    -0.499688   
O7       O      0.963110000000     0.953940000000     0.057090000000    -0.480439   
O8       O      0.168880000000     0.204910000000     0.978690000000    -0.363407   
O9       O      0.080140000000     0.128120000000     0.143900000000    -0.463872   
O10      O      0.178140000000     0.043270000000     0.958940000000    -0.474655   
O11      O      0.215110000000     0.130990000000     0.042870000000    -0.437995   
O12      O      0.069100000000     0.938760000000     0.109160000000    -0.413879   
O13      O      0.149660000000     0.992460000000     0.056670000000    -0.434184   
O14      O      0.175360000000     0.187120000000     0.076300000000    -0.451645   
O15      O      0.099000000000     0.048260000000     0.159960000000    -0.465347   
O16      O      0.220860000000     0.145480000000     0.934990000000    -0.398872   
O17      O      0.080320000000     0.058180000000     0.040330000000    -0.548675   
O18      O      0.107770000000     0.033130000000     0.424670000000    -0.406812   
O19      O      0.019660000000     0.144990000000     0.563460000000    -0.478411   
O20      O      0.887000000000     0.957180000000     0.483410000000    -0.366031   
O21      O      0.174530000000     0.139980000000     0.559800000000    -0.445869   
O22      O      0.939250000000     0.056990000000     0.499280000000    -0.458562   
O23      O      0.119040000000     0.129850000000     0.479700000000    -0.406508   
O24      O      0.097090000000     0.153180000000     0.625680000000    -0.430522   
O25      O      0.007070000000     0.021500000000     0.422380000000    -0.405147   
O26      O      0.156930000000     0.042130000000     0.515760000000    -0.414967   
O27      O      0.898720000000     0.966400000000     0.592100000000    -0.439537   
O28      O      0.944780000000     0.890550000000     0.452680000000    -0.347463   
O29      O      0.050140000000     0.023130000000     0.664390000000    -0.452997   
O30      O      0.983060000000     0.063210000000     0.653930000000    -0.457322   
O31      O      0.046310000000     0.943470000000     0.494180000000    -0.474385   
O32      O      0.135400000000     0.013220000000     0.601580000000    -0.431764   
O33      O      0.937600000000     0.907500000000     0.560950000000    -0.380479   
O34      O      0.032030000000     0.039050000000     0.552530000000    -0.605839   
O35      O      0.999110000000     0.478450000000     0.961230000000    -0.407007   
O36      O      0.073410000000     0.678870000000     0.012920000000    -0.463713   
O37      O      0.957490000000     0.503510000000     0.109580000000    -0.405605   
O38      O      0.141410000000     0.637020000000     0.930760000000    -0.432742   
O39      O      0.991030000000     0.594790000000     0.065440000000    -0.526509   
O40      O      0.122110000000     0.537400000000     0.935370000000    -0.395857   
O41      O      0.176800000000     0.730610000000     0.005280000000    -0.433622   
O42      O      0.957770000000     0.428010000000     0.036970000000    -0.444036   
O43      O      0.164640000000     0.524100000000     0.047550000000    -0.438406   
O44      O      0.073300000000     0.607580000000     0.155510000000    -0.459885   
O45      O      0.071040000000     0.425730000000     0.078150000000    -0.384383   
O46      O      0.233950000000     0.672080000000     0.072120000000    -0.452426   
O47      O      0.171640000000     0.705220000000     0.104610000000    -0.445406   
O48      O      0.073830000000     0.428030000000     0.986330000000    -0.432171   
O49      O      0.225430000000     0.600650000000     0.991640000000    -0.439294   
O50      O      0.081650000000     0.519590000000     0.157010000000    -0.405923   
O51      O      0.091080000000     0.576690000000     0.040490000000    -0.542528   
O52      O      0.978350000000     0.409250000000     0.484560000000    -0.463054   
O53      O      0.043320000000     0.676710000000     0.586240000000    -0.39545    
O54      O      0.923930000000     0.504330000000     0.612000000000    -0.430686   
O55      O      0.129760000000     0.621500000000     0.445600000000    -0.346818   
O56      O      0.958900000000     0.566280000000     0.541370000000    -0.399417   
O57      O      0.050270000000     0.520230000000     0.433120000000    -0.461872   
O58      O      0.053700000000     0.660600000000     0.500050000000    -0.389398   
O59      O      0.915910000000     0.423680000000     0.539630000000    -0.496261   
O60      O      0.165760000000     0.538210000000     0.490630000000    -0.461063   
O61      O      0.033350000000     0.585980000000     0.653530000000    -0.366222   
O62      O      0.007470000000     0.401210000000     0.599370000000    -0.470265   
O63      O      0.181540000000     0.716940000000     0.529570000000    -0.347958   
O64      O      0.143620000000     0.661090000000     0.607690000000    -0.405553   
O65      O      0.093170000000     0.435950000000     0.547730000000    -0.487415   
O66      O      0.187840000000     0.610730000000     0.550850000000    -0.399349   
O67      O      0.030410000000     0.493800000000     0.662190000000    -0.47751    
O68      O      0.051290000000     0.531270000000     0.548400000000    -0.539922   
O69      O      0.457220000000     0.055180000000     0.993340000000    -0.445242   
O70      O      0.577260000000     0.961920000000     0.993430000000    -0.429349   
O71      O      0.598020000000     0.146950000000     0.922480000000    -0.414262   
O72      O      0.517830000000     0.965630000000     0.129720000000    -0.419818   
O73      O      0.557230000000     0.043700000000     0.933770000000    -0.479069   
O74      O      0.455430000000     0.970690000000     0.060330000000    -0.450125   
O75      O      0.614840000000     0.969100000000     0.079090000000    -0.457022   
O76      O      0.514800000000     0.159320000000     0.983530000000    -0.425596   
O77      O      0.503940000000     0.057510000000     0.148670000000    -0.439916   
O78      O      0.698800000000     0.148270000000     0.950020000000    -0.397938   
O79      O      0.612480000000     0.204620000000     0.074590000000    -0.430964   
O80      O      0.704730000000     0.096600000000     0.104640000000    -0.439572   
O81      O      0.698690000000     0.064590000000     0.020670000000    -0.513363   
O82      O      0.505320000000     0.148120000000     0.083110000000    -0.42267    
O83      O      0.611410000000     0.101590000000     0.153670000000    -0.451178   
O84      O      0.692760000000     0.196130000000     0.019710000000    -0.446227   
O85      O      0.582230000000     0.079150000000     0.041280000000    -0.506356   
O86      O      0.410340000000     0.977280000000     0.541650000000    -0.40383    
O87      O      0.596700000000     0.955630000000     0.492770000000    -0.4289     
O88      O      0.514580000000     0.052800000000     0.429810000000    -0.462422   
O89      O      0.438580000000     0.913160000000     0.613300000000    -0.451404   
O90      O      0.611580000000     0.057390000000     0.433590000000    -0.455395   
O91      O      0.423810000000     0.986720000000     0.651510000000    -0.402552   
O92      O      0.499360000000     0.895130000000     0.528500000000    -0.407534   
O93      O      0.443520000000     0.069800000000     0.500860000000    -0.458085   
O94      O      0.557350000000     0.070270000000     0.648030000000    -0.434393   
O95      O      0.684580000000     0.136960000000     0.522930000000    -0.479918   
O96      O      0.559760000000     0.166780000000     0.548600000000    -0.446386   
O97      O      0.615220000000     0.946970000000     0.592730000000    -0.415332   
O98      O      0.666280000000     0.047110000000     0.583930000000    -0.453429   
O99      O      0.478760000000     0.099310000000     0.600310000000    -0.394876   
O100     O      0.558640000000     0.982790000000     0.668200000000    -0.434647   
O101     O      0.627050000000     0.165150000000     0.466930000000    -0.454954   
O102     O      0.551510000000     0.039100000000     0.542840000000    -0.550792   
O103     O      0.519700000000     0.402490000000     0.046120000000    -0.402684   
O104     O      0.563790000000     0.666420000000     0.077640000000    -0.483833   
O105     O      0.441790000000     0.521040000000     0.092320000000    -0.478042   
O106     O      0.614700000000     0.601380000000     0.964620000000    -0.453154   
O107     O      0.491660000000     0.596370000000     0.153130000000    -0.456025   
O108     O      0.568680000000     0.497180000000     0.974540000000    -0.420542   
O109     O      0.652640000000     0.698900000000     0.032010000000    -0.389791   
O110     O      0.463160000000     0.448690000000     0.042130000000    -0.449283   
O111     O      0.638900000000     0.446880000000     0.022560000000    -0.40098    
O112     O      0.601630000000     0.591860000000     0.200640000000    -0.47002    
O113     O      0.521450000000     0.422700000000     0.141980000000    -0.447963   
O114     O      0.714610000000     0.631030000000     0.097610000000    -0.460042   
O115     O      0.681710000000     0.688730000000     0.132410000000    -0.446823   
O116     O      0.625940000000     0.471360000000     0.123270000000    -0.420008   
O117     O      0.692320000000     0.553580000000     0.023000000000    -0.490642   
O118     O      0.503110000000     0.502900000000     0.192250000000    -0.448934   
O119     O      0.574040000000     0.552640000000     0.083430000000    -0.528192   
O120     O      0.462320000000     0.382370000000     0.533050000000    -0.437958   
O121     O      0.533060000000     0.642490000000     0.545140000000    -0.428277   
O122     O      0.407880000000     0.503890000000     0.607820000000    -0.523101   
O123     O      0.540950000000     0.565320000000     0.475200000000    -0.401381   
O124     O      0.473110000000     0.601550000000     0.636730000000    -0.3954     
O125     O      0.559020000000     0.483210000000     0.480290000000    -0.442648   
O126     O      0.629970000000     0.686600000000     0.506310000000    -0.346786   
O127     O      0.395070000000     0.417340000000     0.551770000000    -0.476262   
O128     O      0.635930000000     0.517460000000     0.583140000000    -0.469345   
O129     O      0.567440000000     0.573020000000     0.685680000000    -0.395845   
O130     O      0.447380000000     0.369860000000     0.635890000000    -0.440554   
O131     O      0.655100000000     0.642080000000     0.606360000000    -0.428103   
O132     O      0.607690000000     0.691720000000     0.640090000000    -0.360781   
O133     O      0.551940000000     0.427040000000     0.631690000000    -0.463786   
O134     O      0.667720000000     0.587950000000     0.517170000000    -0.351959   
O135     O      0.473280000000     0.478500000000     0.693810000000    -0.456056   
O136     O      0.522870000000     0.513700000000     0.582400000000    -0.557352   


