data_structure

_audit_creation_method RASPA-1.0
_audit_creation_date 2023-5-19
_audit_author_name 'Poobodin Mano'

_cell_length_a    30.5837
_cell_length_b    30.5814
_cell_length_c    29.1132
_cell_angle_alpha 90
_cell_angle_beta  90
_cell_angle_gamma 90
_cell_volume      27229.4

_symmetry_cell_setting          triclinic
_symmetry_space_group_name_Hall 'P 1'
_symmetry_space_group_name_H-M  'P 1'
_symmetry_Int_Tables_number     1

_symmetry_equiv_pos_as_xyz 'x,y,z'

loop_
_atom_site_label
_atom_site_type_symbol
_atom_site_fract_x
_atom_site_fract_y
_atom_site_fract_z
_atom_site_charge
C1       C      0.433760000000     0.434210000000     0.097910000000     0.39416    
C2       C      0.087420000000     0.086770000000     0.099160000000     0.39657    
C3       C      0.086440000000     0.433200000000     0.098640000000     0.422351   
C4       C      0.434350000000     0.087420000000     0.098500000000     0.396738   
C5       C      0.433100000000     0.089590000000     0.476140000000     0.427884   
C6       C      0.089200000000     0.432490000000     0.476260000000     0.402317   
C7       C      0.432380000000     0.432850000000     0.475600000000     0.401332   
C8       C      0.089530000000     0.088850000000     0.476890000000     0.400413   
C9       C      0.337340000000     0.336950000000     0.223020000000     0.42223    
C10      C      0.183870000000     0.184080000000     0.224030000000     0.420482   
C11      C      0.337120000000     0.183920000000     0.223480000000     0.420016   
C12      C      0.183650000000     0.336700000000     0.223630000000     0.394574   
C13      C      0.182160000000     0.338720000000     0.345890000000     0.425608   
C14      C      0.339330000000     0.182590000000     0.345800000000     0.400033   
C15      C      0.338650000000     0.339790000000     0.345300000000     0.427903   
C16      C      0.183230000000     0.181870000000     0.346490000000     0.425617   
C17      C      0.150530000000     0.095860000000     0.146350000000     0.0299827  
C18      C      0.095850000000     0.150130000000     0.145830000000    -0.0706491  
C19      C      0.174930000000     0.120750000000     0.177380000000     0.0494812  
C20      C      0.120150000000     0.175120000000     0.176820000000     0.379039   
C21      C      0.097740000000     0.151020000000     0.428330000000     0.0296567  
C22      C      0.151880000000     0.096180000000     0.428570000000    -0.0712397  
C23      C      0.121290000000     0.174140000000     0.395230000000     0.0554073  
C24      C      0.175540000000     0.119200000000     0.395440000000     0.378177   
C25      C      0.174430000000     0.399680000000     0.176400000000     0.025027   
C26      C      0.120010000000     0.345160000000     0.177180000000    -0.0721521  
C27      C      0.149600000000     0.424080000000     0.145380000000     0.0511579  
C28      C      0.095050000000     0.369490000000     0.146100000000     0.383313   
C29      C      0.425360000000     0.150440000000     0.145860000000     0.0318366  
C30      C      0.370760000000     0.096100000000     0.144830000000    -0.0717094  
C31      C      0.400500000000     0.174850000000     0.176920000000     0.0505927  
C32      C      0.345800000000     0.120420000000     0.175840000000     0.376584   
C33      C      0.424290000000     0.370790000000     0.426880000000     0.0278311  
C34      C      0.370190000000     0.425680000000     0.427030000000    -0.0723064  
C35      C      0.400730000000     0.347660000000     0.393800000000     0.054192   
C36      C      0.346530000000     0.402650000000     0.393920000000     0.377748   
C37      C      0.347490000000     0.120490000000     0.394460000000     0.0255297  
C38      C      0.401670000000     0.175300000000     0.394140000000    -0.071389   
C39      C      0.371070000000     0.097390000000     0.427550000000     0.0567242  
C40      C      0.425350000000     0.152290000000     0.427260000000     0.379076   
C41      C      0.151390000000     0.424410000000     0.427620000000     0.0306673  
C42      C      0.096500000000     0.370320000000     0.427780000000    -0.0702911  
C43      C      0.174490000000     0.400840000000     0.394470000000     0.0501481  
C44      C      0.119500000000     0.346650000000     0.394700000000     0.379097   
C45      C      0.370560000000     0.425040000000     0.145030000000     0.0254013  
C46      C      0.425140000000     0.370690000000     0.144370000000    -0.0739456  
C47      C      0.346180000000     0.400180000000     0.176120000000     0.0523126  
C48      C      0.400870000000     0.345730000000     0.175440000000     0.382772   
C49      C      0.433760000000     0.434210000000     0.597910000000     0.394218   
C50      C      0.087420000000     0.086770000000     0.599160000000     0.396625   
C51      C      0.086440000000     0.433200000000     0.598640000000     0.422381   
C52      C      0.434350000000     0.087420000000     0.598500000000     0.396798   
C53      C      0.433100000000     0.089590000000     0.976140000000     0.427841   
C54      C      0.089200000000     0.432490000000     0.976260000000     0.402236   
C55      C      0.432380000000     0.432850000000     0.975600000000     0.401235   
C56      C      0.089530000000     0.088850000000     0.976890000000     0.40037    
C57      C      0.337340000000     0.336950000000     0.723020000000     0.422244   
C58      C      0.183870000000     0.184080000000     0.724030000000     0.420496   
C59      C      0.337120000000     0.183920000000     0.723480000000     0.420029   
C60      C      0.183650000000     0.336700000000     0.723630000000     0.39459    
C61      C      0.182160000000     0.338720000000     0.845900000000     0.425586   
C62      C      0.339330000000     0.182590000000     0.845800000000     0.399994   
C63      C      0.338650000000     0.339790000000     0.845300000000     0.427914   
C64      C      0.183230000000     0.181870000000     0.846490000000     0.425629   
C65      C      0.150530000000     0.095860000000     0.646350000000     0.0300069  
C66      C      0.095850000000     0.150130000000     0.645830000000    -0.0706255  
C67      C      0.174930000000     0.120750000000     0.677380000000     0.0494974  
C68      C      0.120150000000     0.175120000000     0.676820000000     0.379055   
C69      C      0.097740000000     0.151020000000     0.928330000000     0.0296812  
C70      C      0.151880000000     0.096180000000     0.928570000000    -0.0712162  
C71      C      0.121290000000     0.174140000000     0.895230000000     0.0554248  
C72      C      0.175540000000     0.119200000000     0.895440000000     0.378195   
C73      C      0.174430000000     0.399680000000     0.676400000000     0.0250416  
C74      C      0.120010000000     0.345160000000     0.677180000000    -0.0721496  
C75      C      0.149600000000     0.424080000000     0.645380000000     0.0511841  
C76      C      0.095050000000     0.369490000000     0.646100000000     0.383385   
C77      C      0.425360000000     0.150440000000     0.645860000000     0.0318599  
C78      C      0.370760000000     0.096100000000     0.644820000000    -0.0715941  
C79      C      0.400500000000     0.174850000000     0.676920000000     0.0506138  
C80      C      0.345800000000     0.120420000000     0.675850000000     0.376603   
C81      C      0.424290000000     0.370790000000     0.926880000000     0.0278561  
C82      C      0.370190000000     0.425680000000     0.927030000000    -0.0723279  
C83      C      0.400730000000     0.347660000000     0.893800000000     0.0542017  
C84      C      0.346530000000     0.402650000000     0.893930000000     0.377727   
C85      C      0.347490000000     0.120490000000     0.894460000000     0.025542   
C86      C      0.401670000000     0.175300000000     0.894140000000    -0.0713919  
C87      C      0.371070000000     0.097390000000     0.927550000000     0.0567522  
C88      C      0.425350000000     0.152290000000     0.927260000000     0.379157   
C89      C      0.151390000000     0.424410000000     0.927620000000     0.0306884  
C90      C      0.096500000000     0.370320000000     0.927780000000    -0.0702928  
C91      C      0.174490000000     0.400840000000     0.894470000000     0.0501637  
C92      C      0.119500000000     0.346650000000     0.894710000000     0.379078   
C93      C      0.370560000000     0.425040000000     0.645020000000     0.0254388  
C94      C      0.425140000000     0.370690000000     0.644370000000    -0.0739196  
C95      C      0.346180000000     0.400180000000     0.676120000000     0.052327   
C96      C      0.400870000000     0.345730000000     0.675440000000     0.382789   
C97      C      0.433760000000     0.934210000000     0.097910000000     0.394154   
C98      C      0.087420000000     0.586770000000     0.099160000000     0.396582   
C99      C      0.086440000000     0.933200000000     0.098640000000     0.422355   
C100     C      0.434350000000     0.587420000000     0.098500000000     0.39674    
C101     C      0.433100000000     0.589590000000     0.476140000000     0.427887   
C102     C      0.089200000000     0.932490000000     0.476260000000     0.402322   
C103     C      0.432380000000     0.932850000000     0.475600000000     0.401326   
C104     C      0.089530000000     0.588850000000     0.476890000000     0.400426   
C105     C      0.337340000000     0.836950000000     0.223020000000     0.422362   
C106     C      0.183870000000     0.684080000000     0.224030000000     0.420482   
C107     C      0.337120000000     0.683920000000     0.223480000000     0.420017   
C108     C      0.183650000000     0.836700000000     0.223630000000     0.394442   
C109     C      0.182160000000     0.838720000000     0.345890000000     0.425609   
C110     C      0.339330000000     0.682590000000     0.345800000000     0.400033   
C111     C      0.338650000000     0.839790000000     0.345300000000     0.427904   
C112     C      0.183230000000     0.681870000000     0.346490000000     0.425618   
C113     C      0.150530000000     0.595860000000     0.146350000000     0.0299651  
C114     C      0.095850000000     0.650130000000     0.145830000000    -0.0706477  
C115     C      0.174930000000     0.620750000000     0.177380000000     0.0494955  
C116     C      0.120150000000     0.675120000000     0.176820000000     0.379041   
C117     C      0.097740000000     0.651020000000     0.428330000000     0.029659   
C118     C      0.151880000000     0.596180000000     0.428570000000    -0.0712342  
C119     C      0.121290000000     0.674140000000     0.395230000000     0.0554088  
C120     C      0.175540000000     0.619200000000     0.395440000000     0.378182   
C121     C      0.174430000000     0.899680000000     0.176400000000     0.0250272  
C122     C      0.120010000000     0.845160000000     0.177180000000    -0.0721593  
C123     C      0.149600000000     0.924080000000     0.145380000000     0.0511661  
C124     C      0.095050000000     0.869490000000     0.146100000000     0.383319   
C125     C      0.425360000000     0.650440000000     0.145860000000     0.0318231  
C126     C      0.370760000000     0.596100000000     0.144830000000    -0.0717053  
C127     C      0.400500000000     0.674850000000     0.176920000000     0.0506027  
C128     C      0.345800000000     0.620420000000     0.175840000000     0.37659    
C129     C      0.424290000000     0.870790000000     0.426880000000     0.027834   
C130     C      0.370190000000     0.925680000000     0.427030000000    -0.0723017  
C131     C      0.400730000000     0.847660000000     0.393800000000     0.0541941  
C132     C      0.346530000000     0.902650000000     0.393920000000     0.377755   
C133     C      0.347490000000     0.620490000000     0.394460000000     0.0255345  
C134     C      0.401670000000     0.675300000000     0.394140000000    -0.0713876  
C135     C      0.371070000000     0.597390000000     0.427550000000     0.056729   
C136     C      0.425350000000     0.652290000000     0.427260000000     0.379078   
C137     C      0.151390000000     0.924410000000     0.427620000000     0.0306735  
C138     C      0.096500000000     0.870320000000     0.427780000000    -0.0702878  
C139     C      0.174490000000     0.900840000000     0.394470000000     0.0501534  
C140     C      0.119500000000     0.846650000000     0.394700000000     0.379099   
C141     C      0.370560000000     0.925040000000     0.145030000000     0.0253971  
C142     C      0.425140000000     0.870690000000     0.144370000000    -0.0739464  
C143     C      0.346180000000     0.900180000000     0.176120000000     0.0523363  
C144     C      0.400870000000     0.845730000000     0.175440000000     0.382781   
C145     C      0.433760000000     0.934210000000     0.597910000000     0.394213   
C146     C      0.087420000000     0.586770000000     0.599160000000     0.396637   
C147     C      0.086440000000     0.933200000000     0.598640000000     0.422386   
C148     C      0.434350000000     0.587420000000     0.598500000000     0.3968     
C149     C      0.433100000000     0.589590000000     0.976140000000     0.427843   
C150     C      0.089200000000     0.932490000000     0.976260000000     0.402241   
C151     C      0.432380000000     0.932850000000     0.975600000000     0.401229   
C152     C      0.089530000000     0.588850000000     0.976890000000     0.400384   
C153     C      0.337340000000     0.836950000000     0.723020000000     0.422377   
C154     C      0.183870000000     0.684080000000     0.724030000000     0.420496   
C155     C      0.337120000000     0.683920000000     0.723480000000     0.42003    
C156     C      0.183650000000     0.836700000000     0.723630000000     0.394458   
C157     C      0.182160000000     0.838720000000     0.845900000000     0.425586   
C158     C      0.339330000000     0.682590000000     0.845800000000     0.399994   
C159     C      0.338650000000     0.839790000000     0.845300000000     0.427916   
C160     C      0.183230000000     0.681870000000     0.846490000000     0.42563    
C161     C      0.150530000000     0.595860000000     0.646350000000     0.0299894  
C162     C      0.095850000000     0.650130000000     0.645830000000    -0.0706241  
C163     C      0.174930000000     0.620750000000     0.677380000000     0.0495118  
C164     C      0.120150000000     0.675120000000     0.676820000000     0.379058   
C165     C      0.097740000000     0.651020000000     0.928330000000     0.0296835  
C166     C      0.151880000000     0.596180000000     0.928570000000    -0.0712107  
C167     C      0.121290000000     0.674140000000     0.895230000000     0.0554262  
C168     C      0.175540000000     0.619200000000     0.895440000000     0.3782     
C169     C      0.174430000000     0.899680000000     0.676400000000     0.0250418  
C170     C      0.120010000000     0.845160000000     0.677180000000    -0.0721567  
C171     C      0.149600000000     0.924080000000     0.645380000000     0.0511923  
C172     C      0.095050000000     0.869490000000     0.646100000000     0.383391   
C173     C      0.425360000000     0.650440000000     0.645860000000     0.0318465  
C174     C      0.370760000000     0.596100000000     0.644820000000    -0.07159    
C175     C      0.400500000000     0.674850000000     0.676920000000     0.0506238  
C176     C      0.345800000000     0.620420000000     0.675850000000     0.376609   
C177     C      0.424290000000     0.870790000000     0.926880000000     0.0278591  
C178     C      0.370190000000     0.925680000000     0.927030000000    -0.0723232  
C179     C      0.400730000000     0.847660000000     0.893800000000     0.0542038  
C180     C      0.346530000000     0.902650000000     0.893930000000     0.377734   
C181     C      0.347490000000     0.620490000000     0.894460000000     0.0255468  
C182     C      0.401670000000     0.675300000000     0.894140000000    -0.0713905  
C183     C      0.371070000000     0.597390000000     0.927550000000     0.0567571  
C184     C      0.425350000000     0.652290000000     0.927260000000     0.379159   
C185     C      0.151390000000     0.924410000000     0.927620000000     0.0306946  
C186     C      0.096500000000     0.870320000000     0.927780000000    -0.0702895  
C187     C      0.174490000000     0.900840000000     0.894470000000     0.0501689  
C188     C      0.119500000000     0.846650000000     0.894710000000     0.379079   
C189     C      0.370560000000     0.925040000000     0.645020000000     0.0254345  
C190     C      0.425140000000     0.870690000000     0.644370000000    -0.0739204  
C191     C      0.346180000000     0.900180000000     0.676120000000     0.0523507  
C192     C      0.400870000000     0.845730000000     0.675440000000     0.382799   
C193     C      0.933760000000     0.434210000000     0.097910000000     0.394154   
C194     C      0.587420000000     0.086770000000     0.099160000000     0.396566   
C195     C      0.586440000000     0.433200000000     0.098640000000     0.422357   
C196     C      0.934350000000     0.087420000000     0.098500000000     0.396724   
C197     C      0.933100000000     0.089590000000     0.476140000000     0.42787    
C198     C      0.589200000000     0.432490000000     0.476260000000     0.402322   
C199     C      0.932380000000     0.432850000000     0.475600000000     0.401465   
C200     C      0.589530000000     0.088850000000     0.476890000000     0.400409   
C201     C      0.837340000000     0.336950000000     0.223020000000     0.422233   
C202     C      0.683870000000     0.184080000000     0.224030000000     0.42046    
C203     C      0.837120000000     0.183920000000     0.223480000000     0.420117   
C204     C      0.683650000000     0.336700000000     0.223630000000     0.394556   
C205     C      0.682170000000     0.338720000000     0.345890000000     0.425578   
C206     C      0.839340000000     0.182590000000     0.345800000000     0.40014    
C207     C      0.838650000000     0.339790000000     0.345300000000     0.427905   
C208     C      0.683220000000     0.181870000000     0.346490000000     0.425491   
C209     C      0.650530000000     0.095860000000     0.146350000000     0.0299847  
C210     C      0.595850000000     0.150130000000     0.145830000000    -0.0706445  
C211     C      0.674930000000     0.120750000000     0.177380000000     0.0494822  
C212     C      0.620150000000     0.175120000000     0.176820000000     0.379043   
C213     C      0.597740000000     0.151020000000     0.428330000000     0.0296659  
C214     C      0.651880000000     0.096180000000     0.428570000000    -0.0712392  
C215     C      0.621290000000     0.174140000000     0.395230000000     0.0553992  
C216     C      0.675530000000     0.119200000000     0.395440000000     0.378089   
C217     C      0.674430000000     0.399680000000     0.176400000000     0.025028   
C218     C      0.620010000000     0.345160000000     0.177180000000    -0.0721494  
C219     C      0.649600000000     0.424080000000     0.145380000000     0.0511609  
C220     C      0.595050000000     0.369490000000     0.146100000000     0.38332    
C221     C      0.925360000000     0.150440000000     0.145860000000     0.0318519  
C222     C      0.870760000000     0.096100000000     0.144830000000    -0.0717655  
C223     C      0.900510000000     0.174850000000     0.176920000000     0.0505542  
C224     C      0.845800000000     0.120420000000     0.175840000000     0.376743   
C225     C      0.924290000000     0.370790000000     0.426880000000     0.027845   
C226     C      0.870190000000     0.425680000000     0.427030000000    -0.0722986  
C227     C      0.900730000000     0.347660000000     0.393800000000     0.054194   
C228     C      0.846530000000     0.402650000000     0.393920000000     0.377748   
C229     C      0.847490000000     0.120490000000     0.394460000000     0.0255528  
C230     C      0.901670000000     0.175300000000     0.394140000000    -0.0713806  
C231     C      0.871070000000     0.097390000000     0.427550000000     0.056719   
C232     C      0.925350000000     0.152290000000     0.427260000000     0.37908    
C233     C      0.651390000000     0.424410000000     0.427620000000     0.0306861  
C234     C      0.596500000000     0.370320000000     0.427780000000    -0.0703106  
C235     C      0.674490000000     0.400840000000     0.394470000000     0.0501132  
C236     C      0.619500000000     0.346650000000     0.394700000000     0.379167   
C237     C      0.870560000000     0.425040000000     0.145030000000     0.0254015  
C238     C      0.925140000000     0.370690000000     0.144370000000    -0.0740105  
C239     C      0.846180000000     0.400180000000     0.176120000000     0.0523181  
C240     C      0.900870000000     0.345730000000     0.175440000000     0.382804   
C241     C      0.933760000000     0.434210000000     0.597910000000     0.394213   
C242     C      0.587420000000     0.086770000000     0.599160000000     0.396622   
C243     C      0.586440000000     0.433200000000     0.598640000000     0.422388   
C244     C      0.934350000000     0.087420000000     0.598500000000     0.396784   
C245     C      0.933100000000     0.089590000000     0.976140000000     0.427827   
C246     C      0.589200000000     0.432490000000     0.976260000000     0.402241   
C247     C      0.932380000000     0.432850000000     0.975600000000     0.401368   
C248     C      0.589530000000     0.088850000000     0.976890000000     0.400366   
C249     C      0.837340000000     0.336950000000     0.723020000000     0.422248   
C250     C      0.683870000000     0.184080000000     0.724030000000     0.420474   
C251     C      0.837120000000     0.183920000000     0.723480000000     0.42013    
C252     C      0.683650000000     0.336700000000     0.723630000000     0.394572   
C253     C      0.682170000000     0.338720000000     0.845900000000     0.425556   
C254     C      0.839340000000     0.182590000000     0.845800000000     0.400101   
C255     C      0.838650000000     0.339790000000     0.845300000000     0.427916   
C256     C      0.683220000000     0.181870000000     0.846490000000     0.425503   
C257     C      0.650530000000     0.095860000000     0.646350000000     0.030009   
C258     C      0.595850000000     0.150130000000     0.645830000000    -0.0706209  
C259     C      0.674930000000     0.120750000000     0.677380000000     0.0494985  
C260     C      0.620150000000     0.175120000000     0.676820000000     0.37906    
C261     C      0.597740000000     0.151020000000     0.928330000000     0.0296904  
C262     C      0.651880000000     0.096180000000     0.928570000000    -0.0712157  
C263     C      0.621290000000     0.174140000000     0.895230000000     0.0554167  
C264     C      0.675530000000     0.119200000000     0.895440000000     0.378107   
C265     C      0.674430000000     0.399680000000     0.676400000000     0.0250426  
C266     C      0.620010000000     0.345160000000     0.677180000000    -0.0721468  
C267     C      0.649600000000     0.424080000000     0.645380000000     0.0511871  
C268     C      0.595050000000     0.369490000000     0.646100000000     0.383392   
C269     C      0.925360000000     0.150440000000     0.645860000000     0.0318752  
C270     C      0.870760000000     0.096100000000     0.644820000000    -0.0716501  
C271     C      0.900510000000     0.174850000000     0.676920000000     0.0505753  
C272     C      0.845800000000     0.120420000000     0.675850000000     0.376763   
C273     C      0.924290000000     0.370790000000     0.926880000000     0.02787    
C274     C      0.870190000000     0.425680000000     0.927030000000    -0.0723201  
C275     C      0.900730000000     0.347660000000     0.893800000000     0.0542037  
C276     C      0.846530000000     0.402650000000     0.893930000000     0.377727   
C277     C      0.847490000000     0.120490000000     0.894460000000     0.0255651  
C278     C      0.901670000000     0.175300000000     0.894140000000    -0.0713834  
C279     C      0.871070000000     0.097390000000     0.927550000000     0.056747   
C280     C      0.925350000000     0.152290000000     0.927260000000     0.379161   
C281     C      0.651390000000     0.424410000000     0.927620000000     0.0307072  
C282     C      0.596500000000     0.370320000000     0.927780000000    -0.0703123  
C283     C      0.674490000000     0.400840000000     0.894470000000     0.0501287  
C284     C      0.619500000000     0.346650000000     0.894710000000     0.379147   
C285     C      0.870560000000     0.425040000000     0.645020000000     0.025439   
C286     C      0.925140000000     0.370690000000     0.644370000000    -0.0739845  
C287     C      0.846180000000     0.400180000000     0.676120000000     0.0523325  
C288     C      0.900870000000     0.345730000000     0.675440000000     0.382821   
C289     C      0.933760000000     0.934210000000     0.097910000000     0.394148   
C290     C      0.587420000000     0.586770000000     0.099160000000     0.396578   
C291     C      0.586440000000     0.933200000000     0.098640000000     0.422362   
C292     C      0.934350000000     0.587420000000     0.098500000000     0.396726   
C293     C      0.933100000000     0.589590000000     0.476140000000     0.427873   
C294     C      0.589200000000     0.932490000000     0.476260000000     0.402327   
C295     C      0.932380000000     0.932850000000     0.475600000000     0.40146    
C296     C      0.589530000000     0.588850000000     0.476890000000     0.400422   
C297     C      0.837340000000     0.836950000000     0.223020000000     0.422366   
C298     C      0.683870000000     0.684080000000     0.224030000000     0.42046    
C299     C      0.837120000000     0.683920000000     0.223480000000     0.420119   
C300     C      0.683650000000     0.836700000000     0.223630000000     0.394423   
C301     C      0.682170000000     0.838720000000     0.345890000000     0.425579   
C302     C      0.839340000000     0.682590000000     0.345800000000     0.400141   
C303     C      0.838650000000     0.839790000000     0.345300000000     0.427906   
C304     C      0.683220000000     0.681870000000     0.346490000000     0.425493   
C305     C      0.650530000000     0.595860000000     0.146350000000     0.0299672  
C306     C      0.595850000000     0.650130000000     0.145830000000    -0.0706431  
C307     C      0.674930000000     0.620750000000     0.177380000000     0.0494966  
C308     C      0.620150000000     0.675120000000     0.176820000000     0.379046   
C309     C      0.597740000000     0.651020000000     0.428330000000     0.0296682  
C310     C      0.651880000000     0.596180000000     0.428570000000    -0.0712337  
C311     C      0.621290000000     0.674140000000     0.395230000000     0.0554006  
C312     C      0.675530000000     0.619200000000     0.395440000000     0.378094   
C313     C      0.674430000000     0.899680000000     0.176400000000     0.0250282  
C314     C      0.620010000000     0.845160000000     0.177180000000    -0.0721566  
C315     C      0.649600000000     0.924080000000     0.145380000000     0.0511691  
C316     C      0.595050000000     0.869490000000     0.146100000000     0.383326   
C317     C      0.925360000000     0.650440000000     0.145860000000     0.0318385  
C318     C      0.870760000000     0.596100000000     0.144830000000    -0.0717614  
C319     C      0.900510000000     0.674850000000     0.176920000000     0.0505641  
C320     C      0.845800000000     0.620420000000     0.175840000000     0.37675    
C321     C      0.924290000000     0.870790000000     0.426880000000     0.0278479  
C322     C      0.870190000000     0.925680000000     0.427030000000    -0.0722939  
C323     C      0.900730000000     0.847660000000     0.393800000000     0.0541961  
C324     C      0.846530000000     0.902650000000     0.393920000000     0.377754   
C325     C      0.847490000000     0.620490000000     0.394460000000     0.0255576  
C326     C      0.901670000000     0.675300000000     0.394140000000    -0.0713791  
C327     C      0.871070000000     0.597390000000     0.427550000000     0.0567238  
C328     C      0.925350000000     0.652290000000     0.427260000000     0.379082   
C329     C      0.651390000000     0.924410000000     0.427620000000     0.0306923  
C330     C      0.596500000000     0.870320000000     0.427780000000    -0.0703073  
C331     C      0.674490000000     0.900840000000     0.394470000000     0.0501185  
C332     C      0.619500000000     0.846650000000     0.394700000000     0.379168   
C333     C      0.870560000000     0.925040000000     0.145030000000     0.0253973  
C334     C      0.925140000000     0.870690000000     0.144370000000    -0.0740113  
C335     C      0.846180000000     0.900180000000     0.176120000000     0.0523418  
C336     C      0.900870000000     0.845730000000     0.175440000000     0.382813   
C337     C      0.933760000000     0.934210000000     0.597910000000     0.394207   
C338     C      0.587420000000     0.586770000000     0.599160000000     0.396633   
C339     C      0.586440000000     0.933200000000     0.598640000000     0.422393   
C340     C      0.934350000000     0.587420000000     0.598500000000     0.396786   
C341     C      0.933100000000     0.589590000000     0.976140000000     0.427829   
C342     C      0.589200000000     0.932490000000     0.976260000000     0.402246   
C343     C      0.932380000000     0.932850000000     0.975600000000     0.401363   
C344     C      0.589530000000     0.588850000000     0.976890000000     0.40038    
C345     C      0.837340000000     0.836950000000     0.723020000000     0.422381   
C346     C      0.683870000000     0.684080000000     0.724030000000     0.420474   
C347     C      0.837120000000     0.683920000000     0.723480000000     0.420131   
C348     C      0.683650000000     0.836700000000     0.723630000000     0.394439   
C349     C      0.682170000000     0.838720000000     0.845900000000     0.425557   
C350     C      0.839340000000     0.682590000000     0.845800000000     0.400101   
C351     C      0.838650000000     0.839790000000     0.845300000000     0.427918   
C352     C      0.683220000000     0.681870000000     0.846490000000     0.425505   
C353     C      0.650530000000     0.595860000000     0.646350000000     0.0299914  
C354     C      0.595850000000     0.650130000000     0.645830000000    -0.0706195  
C355     C      0.674930000000     0.620750000000     0.677380000000     0.0495128  
C356     C      0.620150000000     0.675120000000     0.676820000000     0.379063   
C357     C      0.597740000000     0.651020000000     0.928330000000     0.0296927  
C358     C      0.651880000000     0.596180000000     0.928570000000    -0.0712102  
C359     C      0.621290000000     0.674140000000     0.895230000000     0.0554181  
C360     C      0.675530000000     0.619200000000     0.895440000000     0.378112   
C361     C      0.674430000000     0.899680000000     0.676400000000     0.0250429  
C362     C      0.620010000000     0.845160000000     0.677180000000    -0.072154   
C363     C      0.649600000000     0.924080000000     0.645380000000     0.0511953  
C364     C      0.595050000000     0.869490000000     0.646100000000     0.383398   
C365     C      0.925360000000     0.650440000000     0.645860000000     0.0318618  
C366     C      0.870760000000     0.596100000000     0.644820000000    -0.0716461  
C367     C      0.900510000000     0.674850000000     0.676920000000     0.0505853  
C368     C      0.845800000000     0.620420000000     0.675850000000     0.376769   
C369     C      0.924290000000     0.870790000000     0.926880000000     0.0278729  
C370     C      0.870190000000     0.925680000000     0.927030000000    -0.0723154  
C371     C      0.900730000000     0.847660000000     0.893800000000     0.0542058  
C372     C      0.846530000000     0.902650000000     0.893930000000     0.377733   
C373     C      0.847490000000     0.620490000000     0.894460000000     0.0255699  
C374     C      0.901670000000     0.675300000000     0.894140000000    -0.071382   
C375     C      0.871070000000     0.597390000000     0.927550000000     0.0567518  
C376     C      0.925350000000     0.652290000000     0.927260000000     0.379163   
C377     C      0.651390000000     0.924410000000     0.927620000000     0.0307134  
C378     C      0.596500000000     0.870320000000     0.927780000000    -0.070309   
C379     C      0.674490000000     0.900840000000     0.894470000000     0.050134   
C380     C      0.619500000000     0.846650000000     0.894710000000     0.379149   
C381     C      0.870560000000     0.925040000000     0.645020000000     0.0254348  
C382     C      0.925140000000     0.870690000000     0.644370000000    -0.0739853  
C383     C      0.846180000000     0.900180000000     0.676120000000     0.0523562  
C384     C      0.900870000000     0.845730000000     0.675440000000     0.382831   
Co1      Co     0.445980000000     0.010950000000     0.035570000000     0.844985   
Co2      Co     0.075660000000     0.510380000000     0.536320000000     0.846018   
Co3      Co     0.510500000000     0.445960000000     0.035430000000     0.852891   
Co4      Co     0.511030000000     0.075460000000     0.536160000000     0.854337   
Co5      Co     0.260520000000     0.325480000000     0.285800000000     0.851371   
Co6      Co     0.260860000000     0.195940000000     0.286300000000     0.85384    
Co7      Co     0.325600000000     0.260780000000     0.286180000000     0.853965   
Co8      Co     0.196030000000     0.260400000000     0.286710000000     0.856917   
Co9      Co     0.445980000000     0.010950000000     0.535570000000     0.845525   
Co10     Co     0.075660000000     0.510380000000     0.036320000000     0.845516   
Co11     Co     0.510500000000     0.445960000000     0.535430000000     0.853477   
Co12     Co     0.511030000000     0.075460000000     0.036160000000     0.85379    
Co13     Co     0.260520000000     0.325480000000     0.785800000000     0.851416   
Co14     Co     0.260860000000     0.195940000000     0.786300000000     0.853884   
Co15     Co     0.325600000000     0.260780000000     0.786180000000     0.854009   
Co16     Co     0.196030000000     0.260400000000     0.786710000000     0.85696    
Co17     Co     0.445980000000     0.510950000000     0.035570000000     0.845138   
Co18     Co     0.075660000000     0.010370000000     0.536320000000     0.845866   
Co19     Co     0.510500000000     0.945960000000     0.035430000000     0.852965   
Co20     Co     0.511030000000     0.575460000000     0.536160000000     0.854288   
Co21     Co     0.260520000000     0.825480000000     0.285800000000     0.851372   
Co22     Co     0.260860000000     0.695940000000     0.286300000000     0.853841   
Co23     Co     0.325600000000     0.760780000000     0.286180000000     0.85395    
Co24     Co     0.196030000000     0.760400000000     0.286710000000     0.856931   
Co25     Co     0.445980000000     0.510950000000     0.535570000000     0.845677   
Co26     Co     0.075660000000     0.010370000000     0.036320000000     0.845364   
Co27     Co     0.510500000000     0.945960000000     0.535430000000     0.853551   
Co28     Co     0.511030000000     0.575460000000     0.036160000000     0.853741   
Co29     Co     0.260520000000     0.825480000000     0.785800000000     0.851416   
Co30     Co     0.260860000000     0.695940000000     0.786300000000     0.853885   
Co31     Co     0.325600000000     0.760780000000     0.786180000000     0.853994   
Co32     Co     0.196030000000     0.760400000000     0.786710000000     0.856974   
Co33     Co     0.945980000000     0.010950000000     0.035570000000     0.845137   
Co34     Co     0.575660000000     0.510380000000     0.536320000000     0.846035   
Co35     Co     0.010500000000     0.445960000000     0.035430000000     0.852715   
Co36     Co     0.011040000000     0.075460000000     0.536160000000     0.854182   
Co37     Co     0.760520000000     0.325480000000     0.285800000000     0.851361   
Co38     Co     0.760860000000     0.195940000000     0.286300000000     0.853783   
Co39     Co     0.825600000000     0.260780000000     0.286180000000     0.854042   
Co40     Co     0.696040000000     0.260400000000     0.286710000000     0.856765   
Co41     Co     0.945980000000     0.010950000000     0.535570000000     0.845677   
Co42     Co     0.575660000000     0.510380000000     0.036320000000     0.845533   
Co43     Co     0.010500000000     0.445960000000     0.535430000000     0.853302   
Co44     Co     0.011040000000     0.075460000000     0.036160000000     0.853635   
Co45     Co     0.760520000000     0.325480000000     0.785800000000     0.851405   
Co46     Co     0.760860000000     0.195940000000     0.786300000000     0.853827   
Co47     Co     0.825600000000     0.260780000000     0.786180000000     0.854086   
Co48     Co     0.696040000000     0.260400000000     0.786710000000     0.856808   
Co49     Co     0.945980000000     0.510950000000     0.035570000000     0.845289   
Co50     Co     0.575660000000     0.010370000000     0.536320000000     0.845883   
Co51     Co     0.010500000000     0.945960000000     0.035430000000     0.852789   
Co52     Co     0.011040000000     0.575460000000     0.536160000000     0.854132   
Co53     Co     0.760520000000     0.825480000000     0.285800000000     0.851362   
Co54     Co     0.760860000000     0.695940000000     0.286300000000     0.853784   
Co55     Co     0.825600000000     0.760780000000     0.286180000000     0.854027   
Co56     Co     0.696040000000     0.760400000000     0.286710000000     0.856779   
Co57     Co     0.945980000000     0.510950000000     0.535570000000     0.845829   
Co58     Co     0.575660000000     0.010370000000     0.036320000000     0.845381   
Co59     Co     0.010500000000     0.945960000000     0.535430000000     0.853376   
Co60     Co     0.011040000000     0.575460000000     0.036160000000     0.853585   
Co61     Co     0.760520000000     0.825480000000     0.785800000000     0.851406   
Co62     Co     0.760860000000     0.695940000000     0.786300000000     0.853828   
Co63     Co     0.825600000000     0.760780000000     0.786180000000     0.854071   
Co64     Co     0.696040000000     0.760400000000     0.786710000000     0.856822   
F1       F      0.103070000000     0.214100000000     0.190310000000    -0.421597   
F2       F      0.213840000000     0.101480000000     0.380770000000    -0.429478   
F3       F      0.055990000000     0.352570000000     0.132660000000    -0.420262   
F4       F      0.306660000000     0.103520000000     0.189070000000    -0.43232    
F5       F      0.308270000000     0.420410000000     0.379200000000    -0.430928   
F6       F      0.463670000000     0.170000000000     0.441890000000    -0.428713   
F7       F      0.101670000000     0.308400000000     0.380010000000    -0.425529   
F8       F      0.417910000000     0.306710000000     0.188850000000    -0.422794   
F9       F      0.103070000000     0.214100000000     0.690310000000    -0.42158    
F10      F      0.213840000000     0.101480000000     0.880770000000    -0.429462   
F11      F      0.055990000000     0.352570000000     0.632670000000    -0.420249   
F12      F      0.306660000000     0.103520000000     0.689070000000    -0.432324   
F13      F      0.308270000000     0.420410000000     0.879200000000    -0.430884   
F14      F      0.463670000000     0.170000000000     0.941880000000    -0.428694   
F15      F      0.101670000000     0.308400000000     0.880010000000    -0.425484   
F16      F      0.417910000000     0.306710000000     0.688850000000    -0.422775   
F17      F      0.103070000000     0.714100000000     0.190310000000    -0.421595   
F18      F      0.213840000000     0.601480000000     0.380770000000    -0.429466   
F19      F      0.055990000000     0.852570000000     0.132660000000    -0.420261   
F20      F      0.306660000000     0.603520000000     0.189070000000    -0.432308   
F21      F      0.308270000000     0.920410000000     0.379200000000    -0.430914   
F22      F      0.463670000000     0.670000000000     0.441890000000    -0.428712   
F23      F      0.101670000000     0.808400000000     0.380010000000    -0.425528   
F24      F      0.417910000000     0.806710000000     0.188850000000    -0.422793   
F25      F      0.103070000000     0.714100000000     0.690310000000    -0.421578   
F26      F      0.213840000000     0.601480000000     0.880770000000    -0.42945    
F27      F      0.055990000000     0.852570000000     0.632670000000    -0.420249   
F28      F      0.306660000000     0.603520000000     0.689070000000    -0.432312   
F29      F      0.308270000000     0.920410000000     0.879200000000    -0.43087    
F30      F      0.463670000000     0.670000000000     0.941880000000    -0.428694   
F31      F      0.101670000000     0.808400000000     0.880010000000    -0.425484   
F32      F      0.417910000000     0.806710000000     0.688850000000    -0.422775   
F33      F      0.603070000000     0.214100000000     0.190310000000    -0.421582   
F34      F      0.713840000000     0.101480000000     0.380770000000    -0.429407   
F35      F      0.555990000000     0.352570000000     0.132660000000    -0.420238   
F36      F      0.806670000000     0.103520000000     0.189070000000    -0.432407   
F37      F      0.808270000000     0.420410000000     0.379200000000    -0.430927   
F38      F      0.963670000000     0.170000000000     0.441890000000    -0.428687   
F39      F      0.601670000000     0.308400000000     0.380010000000    -0.425523   
F40      F      0.917910000000     0.306710000000     0.188850000000    -0.422786   
F41      F      0.603070000000     0.214100000000     0.690310000000    -0.421565   
F42      F      0.713840000000     0.101480000000     0.880770000000    -0.42939    
F43      F      0.555990000000     0.352570000000     0.632670000000    -0.420226   
F44      F      0.806670000000     0.103520000000     0.689070000000    -0.43241    
F45      F      0.808270000000     0.420410000000     0.879200000000    -0.430883   
F46      F      0.963670000000     0.170000000000     0.941880000000    -0.428668   
F47      F      0.601670000000     0.308400000000     0.880010000000    -0.425478   
F48      F      0.917910000000     0.306710000000     0.688850000000    -0.422768   
F49      F      0.603070000000     0.714100000000     0.190310000000    -0.421581   
F50      F      0.713840000000     0.601480000000     0.380770000000    -0.429394   
F51      F      0.555990000000     0.852570000000     0.132660000000    -0.420237   
F52      F      0.806670000000     0.603520000000     0.189070000000    -0.432395   
F53      F      0.808270000000     0.920410000000     0.379200000000    -0.430914   
F54      F      0.963670000000     0.670000000000     0.441890000000    -0.428686   
F55      F      0.601670000000     0.808400000000     0.380010000000    -0.425522   
F56      F      0.917910000000     0.806710000000     0.188850000000    -0.422786   
F57      F      0.603070000000     0.714100000000     0.690310000000    -0.421564   
F58      F      0.713840000000     0.601480000000     0.880770000000    -0.429378   
F59      F      0.555990000000     0.852570000000     0.632670000000    -0.420225   
F60      F      0.806670000000     0.603520000000     0.689070000000    -0.432398   
F61      F      0.808270000000     0.920410000000     0.879200000000    -0.43087    
F62      F      0.963670000000     0.670000000000     0.941880000000    -0.428667   
F63      F      0.601670000000     0.808400000000     0.880010000000    -0.425477   
F64      F      0.917910000000     0.806710000000     0.688850000000    -0.422767   
H1       H      0.205970000000     0.107520000000     0.188820000000     0.0779214  
H2       H      0.163960000000     0.064780000000     0.135260000000     0.0584628  
H3       H      0.064790000000     0.163230000000     0.134280000000     0.114872   
H4       H      0.107700000000     0.204850000000     0.383290000000     0.082091   
H5       H      0.067130000000     0.164910000000     0.440180000000     0.0863252  
H6       H      0.165280000000     0.065420000000     0.440640000000     0.108409   
H7       H      0.162950000000     0.455060000000     0.133900000000     0.0500562  
H8       H      0.205550000000     0.413090000000     0.187370000000     0.0583267  
H9       H      0.106870000000     0.314170000000     0.188890000000     0.140819   
H10      H      0.413880000000     0.205760000000     0.188580000000     0.0824911  
H11      H      0.456550000000     0.163740000000     0.134980000000     0.0686523  
H12      H      0.357530000000     0.065160000000     0.133050000000     0.106545   
H13      H      0.414290000000     0.316910000000     0.381910000000     0.0603529  
H14      H      0.454890000000     0.356880000000     0.438750000000     0.0654722  
H15      H      0.356820000000     0.456460000000     0.439070000000     0.108479   
H16      H      0.357470000000     0.066680000000     0.439520000000     0.0567355  
H17      H      0.316860000000     0.106610000000     0.382650000000     0.0853977  
H18      H      0.415070000000     0.206040000000     0.382040000000     0.112927   
H19      H      0.205230000000     0.414370000000     0.382520000000     0.0769138  
H20      H      0.165280000000     0.455020000000     0.439500000000     0.0621095  
H21      H      0.065730000000     0.356920000000     0.439810000000     0.113483   
H22      H      0.315180000000     0.413440000000     0.187630000000     0.0536648  
H23      H      0.357160000000     0.456140000000     0.133970000000     0.0585096  
H24      H      0.456160000000     0.357540000000     0.132730000000     0.138036   
H25      H      0.205970000000     0.107520000000     0.688820000000     0.0779331  
H26      H      0.163960000000     0.064780000000     0.635260000000     0.0584938  
H27      H      0.064790000000     0.163230000000     0.634280000000     0.114904   
H28      H      0.107700000000     0.204850000000     0.883290000000     0.082102   
H29      H      0.067130000000     0.164910000000     0.940180000000     0.0863624  
H30      H      0.165280000000     0.065420000000     0.940640000000     0.108446   
H31      H      0.162950000000     0.455060000000     0.633900000000     0.0500871  
H32      H      0.205550000000     0.413090000000     0.687370000000     0.05834    
H33      H      0.106870000000     0.314170000000     0.688890000000     0.140839   
H34      H      0.413880000000     0.205760000000     0.688580000000     0.082501   
H35      H      0.456550000000     0.163740000000     0.634980000000     0.0686839  
H36      H      0.357530000000     0.065160000000     0.633050000000     0.106554   
H37      H      0.414290000000     0.316910000000     0.881910000000     0.0603673  
H38      H      0.454890000000     0.356880000000     0.938750000000     0.065508   
H39      H      0.356820000000     0.456460000000     0.939070000000     0.108526   
H40      H      0.357470000000     0.066680000000     0.939520000000     0.0567713  
H41      H      0.316860000000     0.106610000000     0.882650000000     0.0854084  
H42      H      0.415070000000     0.206040000000     0.882040000000     0.112947   
H43      H      0.205230000000     0.414370000000     0.882520000000     0.0769232  
H44      H      0.165280000000     0.455020000000     0.939500000000     0.0621438  
H45      H      0.065730000000     0.356920000000     0.939820000000     0.113524   
H46      H      0.315180000000     0.413440000000     0.687620000000     0.0536706  
H47      H      0.357160000000     0.456140000000     0.633970000000     0.0585347  
H48      H      0.456160000000     0.357540000000     0.632730000000     0.138067   
H49      H      0.205970000000     0.607520000000     0.188820000000     0.0779277  
H50      H      0.163960000000     0.564790000000     0.135260000000     0.0584856  
H51      H      0.064790000000     0.663230000000     0.134280000000     0.114873   
H52      H      0.107700000000     0.704850000000     0.383290000000     0.0820912  
H53      H      0.067130000000     0.664910000000     0.440180000000     0.0863253  
H54      H      0.165280000000     0.565420000000     0.440640000000     0.108427   
H55      H      0.162950000000     0.955060000000     0.133900000000     0.0500756  
H56      H      0.205550000000     0.913090000000     0.187370000000     0.0583388  
H57      H      0.106870000000     0.814170000000     0.188890000000     0.140821   
H58      H      0.413880000000     0.705760000000     0.188580000000     0.0824897  
H59      H      0.456550000000     0.663730000000     0.134980000000     0.0686582  
H60      H      0.357530000000     0.565160000000     0.133050000000     0.106564   
H61      H      0.414290000000     0.816910000000     0.381910000000     0.0603534  
H62      H      0.454890000000     0.856880000000     0.438750000000     0.0654728  
H63      H      0.356820000000     0.956460000000     0.439070000000     0.1085     
H64      H      0.357470000000     0.566680000000     0.439520000000     0.0567536  
H65      H      0.316860000000     0.606610000000     0.382650000000     0.0854064  
H66      H      0.415070000000     0.706040000000     0.382040000000     0.112927   
H67      H      0.205230000000     0.914370000000     0.382520000000     0.0769235  
H68      H      0.165280000000     0.955020000000     0.439500000000     0.0621304  
H69      H      0.065730000000     0.856920000000     0.439810000000     0.113483   
H70      H      0.315180000000     0.913450000000     0.187630000000     0.0536662  
H71      H      0.357160000000     0.956140000000     0.133970000000     0.0585316  
H72      H      0.456160000000     0.857540000000     0.132730000000     0.138037   
H73      H      0.205970000000     0.607520000000     0.688820000000     0.0779394  
H74      H      0.163960000000     0.564790000000     0.635260000000     0.0585166  
H75      H      0.064790000000     0.663230000000     0.634280000000     0.114904   
H76      H      0.107700000000     0.704850000000     0.883290000000     0.0821022  
H77      H      0.067130000000     0.664910000000     0.940180000000     0.0863625  
H78      H      0.165280000000     0.565420000000     0.940640000000     0.108464   
H79      H      0.162950000000     0.955060000000     0.633900000000     0.0501064  
H80      H      0.205550000000     0.913090000000     0.687370000000     0.0583522  
H81      H      0.106870000000     0.814170000000     0.688890000000     0.140841   
H82      H      0.413880000000     0.705760000000     0.688580000000     0.0824996  
H83      H      0.456550000000     0.663730000000     0.634980000000     0.0686898  
H84      H      0.357530000000     0.565160000000     0.633050000000     0.106573   
H85      H      0.414290000000     0.816910000000     0.881910000000     0.0603678  
H86      H      0.454890000000     0.856880000000     0.938750000000     0.0655085  
H87      H      0.356820000000     0.956460000000     0.939070000000     0.108546   
H88      H      0.357470000000     0.566680000000     0.939520000000     0.0567895  
H89      H      0.316860000000     0.606610000000     0.882650000000     0.0854172  
H90      H      0.415070000000     0.706040000000     0.882040000000     0.112948   
H91      H      0.205230000000     0.914370000000     0.882520000000     0.0769328  
H92      H      0.165280000000     0.955020000000     0.939500000000     0.0621646  
H93      H      0.065730000000     0.856920000000     0.939820000000     0.113524   
H94      H      0.315180000000     0.913450000000     0.687620000000     0.0536719  
H95      H      0.357160000000     0.956140000000     0.633970000000     0.0585567  
H96      H      0.456160000000     0.857540000000     0.632730000000     0.138069   
H97      H      0.705970000000     0.107520000000     0.188820000000     0.0779171  
H98      H      0.663960000000     0.064780000000     0.135260000000     0.0584629  
H99      H      0.564790000000     0.163230000000     0.134280000000     0.114891   
H100     H      0.607700000000     0.204850000000     0.383290000000     0.0821063  
H101     H      0.567130000000     0.164910000000     0.440180000000     0.086343   
H102     H      0.665280000000     0.065420000000     0.440640000000     0.108414   
H103     H      0.662950000000     0.455060000000     0.133900000000     0.0500563  
H104     H      0.705550000000     0.413090000000     0.187370000000     0.0583276  
H105     H      0.606870000000     0.314170000000     0.188890000000     0.140829   
H106     H      0.913890000000     0.205760000000     0.188580000000     0.0825086  
H107     H      0.956550000000     0.163740000000     0.134980000000     0.0686676  
H108     H      0.857530000000     0.065160000000     0.133050000000     0.106565   
H109     H      0.914290000000     0.316910000000     0.381910000000     0.0603629  
H110     H      0.954890000000     0.356880000000     0.438750000000     0.0654905  
H111     H      0.856820000000     0.456460000000     0.439070000000     0.108477   
H112     H      0.857470000000     0.066680000000     0.439520000000     0.056738   
H113     H      0.816860000000     0.106610000000     0.382650000000     0.085392   
H114     H      0.915070000000     0.206040000000     0.382040000000     0.112931   
H115     H      0.705230000000     0.414370000000     0.382520000000     0.0769226  
H116     H      0.665280000000     0.455020000000     0.439500000000     0.0621058  
H117     H      0.565730000000     0.356920000000     0.439810000000     0.113508   
H118     H      0.815180000000     0.413440000000     0.187630000000     0.0536644  
H119     H      0.857160000000     0.456140000000     0.133970000000     0.058511   
H120     H      0.956150000000     0.357540000000     0.132730000000     0.138081   
H121     H      0.705970000000     0.107520000000     0.688820000000     0.0779288  
H122     H      0.663960000000     0.064780000000     0.635260000000     0.0584939  
H123     H      0.564790000000     0.163230000000     0.634280000000     0.114923   
H124     H      0.607700000000     0.204850000000     0.883290000000     0.0821173  
H125     H      0.567130000000     0.164910000000     0.940180000000     0.0863802  
H126     H      0.665280000000     0.065420000000     0.940640000000     0.108451   
H127     H      0.662950000000     0.455060000000     0.633900000000     0.0500872  
H128     H      0.705550000000     0.413090000000     0.687370000000     0.058341   
H129     H      0.606870000000     0.314170000000     0.688890000000     0.14085    
H130     H      0.913890000000     0.205760000000     0.688580000000     0.0825185  
H131     H      0.956550000000     0.163740000000     0.634980000000     0.0686992  
H132     H      0.857530000000     0.065160000000     0.633050000000     0.106574   
H133     H      0.914290000000     0.316910000000     0.881910000000     0.0603773  
H134     H      0.954890000000     0.356880000000     0.938750000000     0.0655262  
H135     H      0.856820000000     0.456460000000     0.939070000000     0.108524   
H136     H      0.857470000000     0.066680000000     0.939520000000     0.0567739  
H137     H      0.816860000000     0.106610000000     0.882650000000     0.0854027  
H138     H      0.915070000000     0.206040000000     0.882040000000     0.112951   
H139     H      0.705230000000     0.414370000000     0.882520000000     0.076932   
H140     H      0.665280000000     0.455020000000     0.939500000000     0.06214    
H141     H      0.565730000000     0.356920000000     0.939820000000     0.113549   
H142     H      0.815180000000     0.413440000000     0.687620000000     0.0536701  
H143     H      0.857160000000     0.456140000000     0.633970000000     0.0585361  
H144     H      0.956150000000     0.357540000000     0.632730000000     0.138113   
H145     H      0.705970000000     0.607520000000     0.188820000000     0.0779234  
H146     H      0.663960000000     0.564790000000     0.135260000000     0.0584856  
H147     H      0.564790000000     0.663230000000     0.134280000000     0.114892   
H148     H      0.607700000000     0.704850000000     0.383290000000     0.0821065  
H149     H      0.567130000000     0.664910000000     0.440180000000     0.0863432  
H150     H      0.665280000000     0.565420000000     0.440640000000     0.108433   
H151     H      0.662950000000     0.955060000000     0.133900000000     0.0500756  
H152     H      0.705550000000     0.913090000000     0.187370000000     0.0583397  
H153     H      0.606870000000     0.814170000000     0.188890000000     0.140831   
H154     H      0.913890000000     0.705760000000     0.188580000000     0.0825072  
H155     H      0.956550000000     0.663730000000     0.134980000000     0.0686735  
H156     H      0.857530000000     0.565160000000     0.133050000000     0.106584   
H157     H      0.914290000000     0.816910000000     0.381910000000     0.0603634  
H158     H      0.954890000000     0.856880000000     0.438750000000     0.065491   
H159     H      0.856820000000     0.956460000000     0.439070000000     0.108497   
H160     H      0.857470000000     0.566680000000     0.439520000000     0.0567562  
H161     H      0.816860000000     0.606610000000     0.382650000000     0.0854007  
H162     H      0.915070000000     0.706040000000     0.382040000000     0.112931   
H163     H      0.705230000000     0.914370000000     0.382520000000     0.0769323  
H164     H      0.665280000000     0.955020000000     0.439500000000     0.0621266  
H165     H      0.565730000000     0.856920000000     0.439810000000     0.113509   
H166     H      0.815180000000     0.913450000000     0.187630000000     0.0536657  
H167     H      0.857160000000     0.956140000000     0.133970000000     0.058533   
H168     H      0.956150000000     0.857540000000     0.132730000000     0.138083   
H169     H      0.705970000000     0.607520000000     0.688820000000     0.0779351  
H170     H      0.663960000000     0.564790000000     0.635260000000     0.0585166  
H171     H      0.564790000000     0.663230000000     0.634280000000     0.114923   
H172     H      0.607700000000     0.704850000000     0.883290000000     0.0821175  
H173     H      0.567130000000     0.664910000000     0.940180000000     0.0863804  
H174     H      0.665280000000     0.565420000000     0.940640000000     0.10847    
H175     H      0.662950000000     0.955060000000     0.633900000000     0.0501065  
H176     H      0.705550000000     0.913090000000     0.687370000000     0.0583531  
H177     H      0.606870000000     0.814170000000     0.688890000000     0.140851   
H178     H      0.913890000000     0.705760000000     0.688580000000     0.0825171  
H179     H      0.956550000000     0.663730000000     0.634980000000     0.068705   
H180     H      0.857530000000     0.565160000000     0.633050000000     0.106593   
H181     H      0.914290000000     0.816910000000     0.881910000000     0.0603778  
H182     H      0.954890000000     0.856880000000     0.938750000000     0.0655268  
H183     H      0.856820000000     0.956460000000     0.939070000000     0.108544   
H184     H      0.857470000000     0.566680000000     0.939520000000     0.0567921  
H185     H      0.816860000000     0.606610000000     0.882650000000     0.0854115  
H186     H      0.915070000000     0.706040000000     0.882040000000     0.112952   
H187     H      0.705230000000     0.914370000000     0.882520000000     0.0769416  
H188     H      0.665280000000     0.955020000000     0.939500000000     0.0621608  
H189     H      0.565730000000     0.856920000000     0.939820000000     0.11355    
H190     H      0.815180000000     0.913450000000     0.687620000000     0.0536715  
H191     H      0.857160000000     0.956140000000     0.633970000000     0.0585581  
H192     H      0.956150000000     0.857540000000     0.632730000000     0.138114   
N1       N      0.111030000000     0.110610000000     0.130500000000    -0.149194   
N2       N      0.159840000000     0.160370000000     0.192770000000    -0.214752   
N3       N      0.113010000000     0.112010000000     0.444940000000    -0.147259   
N4       N      0.160210000000     0.158360000000     0.378680000000    -0.216053   
N5       N      0.159620000000     0.360250000000     0.192370000000    -0.145004   
N6       N      0.109930000000     0.409090000000     0.130020000000    -0.218952   
N7       N      0.410450000000     0.111080000000     0.129760000000    -0.14885    
N8       N      0.360740000000     0.159930000000     0.192100000000    -0.215015   
N9       N      0.409010000000     0.409790000000     0.443500000000    -0.149148   
N10      N      0.361790000000     0.363420000000     0.377280000000    -0.218457   
N11      N      0.362780000000     0.159460000000     0.377790000000    -0.145831   
N12      N      0.410030000000     0.113140000000     0.444030000000    -0.219622   
N13      N      0.112380000000     0.409140000000     0.444230000000    -0.149433   
N14      N      0.158700000000     0.361910000000     0.377970000000    -0.216183   
N15      N      0.410040000000     0.410280000000     0.129120000000    -0.145687   
N16      N      0.361260000000     0.360550000000     0.191550000000    -0.218357   
N17      N      0.111030000000     0.110610000000     0.630500000000    -0.149189   
N18      N      0.159840000000     0.160370000000     0.692770000000    -0.214749   
N19      N      0.113010000000     0.112010000000     0.944940000000    -0.14723    
N20      N      0.160210000000     0.158360000000     0.878680000000    -0.216052   
N21      N      0.159620000000     0.360250000000     0.692370000000    -0.144998   
N22      N      0.109930000000     0.409090000000     0.630020000000    -0.218957   
N23      N      0.410450000000     0.111080000000     0.629760000000    -0.148862   
N24      N      0.360740000000     0.159930000000     0.692100000000    -0.215036   
N25      N      0.409010000000     0.409790000000     0.943490000000    -0.149075   
N26      N      0.361790000000     0.363420000000     0.877280000000    -0.218425   
N27      N      0.362780000000     0.159460000000     0.877800000000    -0.145792   
N28      N      0.410030000000     0.113140000000     0.944030000000    -0.219607   
N29      N      0.112380000000     0.409140000000     0.944230000000    -0.149396   
N30      N      0.158700000000     0.361910000000     0.877970000000    -0.216184   
N31      N      0.410040000000     0.410280000000     0.629120000000    -0.145688   
N32      N      0.361260000000     0.360550000000     0.691550000000    -0.218353   
N33      N      0.111030000000     0.610610000000     0.130500000000    -0.149188   
N34      N      0.159840000000     0.660370000000     0.192770000000    -0.214752   
N35      N      0.113010000000     0.612010000000     0.444940000000    -0.147258   
N36      N      0.160210000000     0.658360000000     0.378680000000    -0.216053   
N37      N      0.159620000000     0.860250000000     0.192370000000    -0.144979   
N38      N      0.109930000000     0.909090000000     0.130020000000    -0.21895    
N39      N      0.410450000000     0.611080000000     0.129760000000    -0.148846   
N40      N      0.360740000000     0.659930000000     0.192100000000    -0.215016   
N41      N      0.409010000000     0.909790000000     0.443500000000    -0.149143   
N42      N      0.361790000000     0.863420000000     0.377280000000    -0.218457   
N43      N      0.362780000000     0.659460000000     0.377790000000    -0.14583    
N44      N      0.410030000000     0.613140000000     0.444030000000    -0.21962    
N45      N      0.112380000000     0.909140000000     0.444230000000    -0.14943    
N46      N      0.158700000000     0.861910000000     0.377970000000    -0.216182   
N47      N      0.410040000000     0.910280000000     0.129120000000    -0.145681   
N48      N      0.361260000000     0.860550000000     0.191550000000    -0.218382   
N49      N      0.111030000000     0.610610000000     0.630500000000    -0.149183   
N50      N      0.159840000000     0.660370000000     0.692770000000    -0.21475    
N51      N      0.113010000000     0.612010000000     0.944940000000    -0.147229   
N52      N      0.160210000000     0.658360000000     0.878680000000    -0.216052   
N53      N      0.159620000000     0.860250000000     0.692370000000    -0.144973   
N54      N      0.109930000000     0.909090000000     0.630020000000    -0.218955   
N55      N      0.410450000000     0.611080000000     0.629760000000    -0.148858   
N56      N      0.360740000000     0.659930000000     0.692100000000    -0.215038   
N57      N      0.409010000000     0.909790000000     0.943490000000    -0.14907    
N58      N      0.361790000000     0.863420000000     0.877280000000    -0.218424   
N59      N      0.362780000000     0.659460000000     0.877800000000    -0.145791   
N60      N      0.410030000000     0.613140000000     0.944030000000    -0.219605   
N61      N      0.112380000000     0.909140000000     0.944230000000    -0.149393   
N62      N      0.158700000000     0.861910000000     0.877970000000    -0.216183   
N63      N      0.410040000000     0.910280000000     0.629120000000    -0.145681   
N64      N      0.361260000000     0.860550000000     0.691550000000    -0.218378   
N65      N      0.611030000000     0.110610000000     0.130500000000    -0.14919    
N66      N      0.659840000000     0.160370000000     0.192770000000    -0.214747   
N67      N      0.613010000000     0.112010000000     0.444940000000    -0.147257   
N68      N      0.660210000000     0.158360000000     0.378680000000    -0.21605    
N69      N      0.659620000000     0.360250000000     0.192370000000    -0.144999   
N70      N      0.609930000000     0.409090000000     0.130020000000    -0.218951   
N71      N      0.910450000000     0.111080000000     0.129760000000    -0.148836   
N72      N      0.860740000000     0.159930000000     0.192100000000    -0.215042   
N73      N      0.909010000000     0.409790000000     0.443500000000    -0.149169   
N74      N      0.861790000000     0.363420000000     0.377280000000    -0.218456   
N75      N      0.862780000000     0.159460000000     0.377790000000    -0.145881   
N76      N      0.910030000000     0.113140000000     0.444030000000    -0.219615   
N77      N      0.612380000000     0.409140000000     0.444230000000    -0.149429   
N78      N      0.658690000000     0.361910000000     0.377970000000    -0.216157   
N79      N      0.910040000000     0.410280000000     0.129120000000    -0.145669   
N80      N      0.861260000000     0.360550000000     0.191550000000    -0.218361   
N81      N      0.611030000000     0.110610000000     0.630500000000    -0.149185   
N82      N      0.659840000000     0.160370000000     0.692770000000    -0.214745   
N83      N      0.613010000000     0.112010000000     0.944940000000    -0.147228   
N84      N      0.660210000000     0.158360000000     0.878680000000    -0.216049   
N85      N      0.659620000000     0.360250000000     0.692370000000    -0.144993   
N86      N      0.609930000000     0.409090000000     0.630020000000    -0.218956   
N87      N      0.910450000000     0.111080000000     0.629760000000    -0.148848   
N88      N      0.860740000000     0.159930000000     0.692100000000    -0.215064   
N89      N      0.909010000000     0.409790000000     0.943490000000    -0.149096   
N90      N      0.861790000000     0.363420000000     0.877280000000    -0.218423   
N91      N      0.862780000000     0.159460000000     0.877800000000    -0.145842   
N92      N      0.910030000000     0.113140000000     0.944030000000    -0.2196     
N93      N      0.612380000000     0.409140000000     0.944230000000    -0.149392   
N94      N      0.658690000000     0.361910000000     0.877970000000    -0.216158   
N95      N      0.910040000000     0.410280000000     0.629120000000    -0.145669   
N96      N      0.861260000000     0.360550000000     0.691550000000    -0.218358   
N97      N      0.611030000000     0.610610000000     0.130500000000    -0.149184   
N98      N      0.659840000000     0.660370000000     0.192770000000    -0.214748   
N99      N      0.613010000000     0.612010000000     0.444940000000    -0.147256   
N100     N      0.660210000000     0.658360000000     0.378680000000    -0.21605    
N101     N      0.659620000000     0.860250000000     0.192370000000    -0.144974   
N102     N      0.609930000000     0.909090000000     0.130020000000    -0.21895    
N103     N      0.910450000000     0.611080000000     0.129760000000    -0.148832   
N104     N      0.860740000000     0.659930000000     0.192100000000    -0.215044   
N105     N      0.909010000000     0.909790000000     0.443500000000    -0.149164   
N106     N      0.861790000000     0.863420000000     0.377280000000    -0.218455   
N107     N      0.862780000000     0.659460000000     0.377790000000    -0.14588    
N108     N      0.910030000000     0.613140000000     0.444030000000    -0.219613   
N109     N      0.612380000000     0.909140000000     0.444230000000    -0.149426   
N110     N      0.658690000000     0.861910000000     0.377970000000    -0.216157   
N111     N      0.910040000000     0.910280000000     0.129120000000    -0.145662   
N112     N      0.861260000000     0.860550000000     0.191550000000    -0.218386   
N113     N      0.611030000000     0.610610000000     0.630500000000    -0.14918    
N114     N      0.659840000000     0.660370000000     0.692770000000    -0.214746   
N115     N      0.613010000000     0.612010000000     0.944940000000    -0.147227   
N116     N      0.660210000000     0.658360000000     0.878680000000    -0.216048   
N117     N      0.659620000000     0.860250000000     0.692370000000    -0.144968   
N118     N      0.609930000000     0.909090000000     0.630020000000    -0.218955   
N119     N      0.910450000000     0.611080000000     0.629760000000    -0.148844   
N120     N      0.860740000000     0.659930000000     0.692100000000    -0.215065   
N121     N      0.909010000000     0.909790000000     0.943490000000    -0.149092   
N122     N      0.861790000000     0.863420000000     0.877280000000    -0.218423   
N123     N      0.862780000000     0.659460000000     0.877800000000    -0.145841   
N124     N      0.910030000000     0.613140000000     0.944030000000    -0.219598   
N125     N      0.612380000000     0.909140000000     0.944230000000    -0.149389   
N126     N      0.658690000000     0.861910000000     0.877970000000    -0.216158   
N127     N      0.910040000000     0.910280000000     0.629120000000    -0.145662   
N128     N      0.861260000000     0.860550000000     0.691550000000    -0.218382   
O1       O      0.418840000000     0.470770000000     0.083290000000    -0.359867   
O2       O      0.102450000000     0.050310000000     0.084420000000    -0.361421   
O3       O      0.050000000000     0.418670000000     0.083450000000    -0.325347   
O4       O      0.470950000000     0.102330000000     0.084030000000    -0.355811   
O5       O      0.101740000000     0.469660000000     0.084150000000    -0.368837   
O6       O      0.419320000000     0.051080000000     0.083440000000    -0.360516   
O7       O      0.051030000000     0.101780000000     0.084250000000    -0.35745    
O8       O      0.470200000000     0.419250000000     0.083070000000    -0.343572   
O9       O      0.417990000000     0.053040000000     0.490500000000    -0.359833   
O10      O      0.104280000000     0.468850000000     0.491120000000    -0.353472   
O11      O      0.468860000000     0.417770000000     0.490150000000    -0.350336   
O12      O      0.052980000000     0.103850000000     0.491300000000    -0.337853   
O13      O      0.104240000000     0.052240000000     0.491530000000    -0.351907   
O14      O      0.417610000000     0.469380000000     0.490350000000    -0.352886   
O15      O      0.469610000000     0.104120000000     0.491080000000    -0.318834   
O16      O      0.052480000000     0.417800000000     0.490560000000    -0.348323   
O17      O      0.510910000000     0.510790000000     0.017570000000    -0.593088   
O18      O      0.300840000000     0.352020000000     0.237700000000    -0.363186   
O19      O      0.220440000000     0.169080000000     0.238580000000    -0.347661   
O20      O      0.352350000000     0.220280000000     0.238390000000    -0.349619   
O21      O      0.168840000000     0.300300000000     0.238800000000    -0.337906   
O22      O      0.300570000000     0.169320000000     0.238250000000    -0.324906   
O23      O      0.220180000000     0.351840000000     0.237980000000    -0.359463   
O24      O      0.169120000000     0.220480000000     0.239030000000    -0.323534   
O25      O      0.352160000000     0.300590000000     0.238120000000    -0.326216   
O26      O      0.218620000000     0.353770000000     0.331130000000    -0.3442     
O27      O      0.302770000000     0.167610000000     0.331340000000    -0.33414    
O28      O      0.353630000000     0.303110000000     0.331080000000    -0.354315   
O29      O      0.168170000000     0.218450000000     0.332120000000    -0.340044   
O30      O      0.219650000000     0.167240000000     0.331460000000    -0.316487   
O31      O      0.302150000000     0.354350000000     0.330400000000    -0.319322   
O32      O      0.167610000000     0.302090000000     0.331410000000    -0.315933   
O33      O      0.354110000000     0.219130000000     0.331120000000    -0.348758   
O34      O      0.260870000000     0.260770000000     0.304590000000    -0.59599    
O35      O      0.418840000000     0.470770000000     0.583290000000    -0.359865   
O36      O      0.102450000000     0.050310000000     0.584420000000    -0.361414   
O37      O      0.050000000000     0.418670000000     0.583440000000    -0.325365   
O38      O      0.470950000000     0.102330000000     0.584030000000    -0.355807   
O39      O      0.101740000000     0.469660000000     0.584150000000    -0.368827   
O40      O      0.419320000000     0.051080000000     0.583440000000    -0.360514   
O41      O      0.051030000000     0.101780000000     0.584250000000    -0.357447   
O42      O      0.470200000000     0.419250000000     0.583070000000    -0.343575   
O43      O      0.417990000000     0.053040000000     0.990500000000    -0.359533   
O44      O      0.104280000000     0.468850000000     0.991130000000    -0.353174   
O45      O      0.468860000000     0.417770000000     0.990150000000    -0.350018   
O46      O      0.052980000000     0.103850000000     0.991300000000    -0.337553   
O47      O      0.104240000000     0.052240000000     0.991530000000    -0.35161    
O48      O      0.417610000000     0.469380000000     0.990350000000    -0.35257    
O49      O      0.469610000000     0.104120000000     0.991080000000    -0.318541   
O50      O      0.052480000000     0.417800000000     0.990560000000    -0.348011   
O51      O      0.510910000000     0.510790000000     0.517570000000    -0.593104   
O52      O      0.300840000000     0.352020000000     0.737700000000    -0.363183   
O53      O      0.220440000000     0.169080000000     0.738580000000    -0.347661   
O54      O      0.352350000000     0.220280000000     0.738390000000    -0.349618   
O55      O      0.168840000000     0.300300000000     0.738800000000    -0.337902   
O56      O      0.300570000000     0.169320000000     0.738250000000    -0.32491    
O57      O      0.220180000000     0.351840000000     0.737980000000    -0.35946    
O58      O      0.169120000000     0.220480000000     0.739030000000    -0.323534   
O59      O      0.352160000000     0.300590000000     0.738120000000    -0.326216   
O60      O      0.218620000000     0.353770000000     0.831130000000    -0.344169   
O61      O      0.302770000000     0.167610000000     0.831340000000    -0.334134   
O62      O      0.353630000000     0.303110000000     0.831080000000    -0.35432    
O63      O      0.168170000000     0.218450000000     0.832120000000    -0.340052   
O64      O      0.219650000000     0.167240000000     0.831460000000    -0.316493   
O65      O      0.302150000000     0.354350000000     0.830400000000    -0.319326   
O66      O      0.167610000000     0.302090000000     0.831410000000    -0.315897   
O67      O      0.354110000000     0.219130000000     0.831120000000    -0.348751   
O68      O      0.260870000000     0.260770000000     0.804580000000    -0.596059   
O69      O      0.418840000000     0.970770000000     0.083290000000    -0.359801   
O70      O      0.102450000000     0.550310000000     0.084420000000    -0.361447   
O71      O      0.050000000000     0.918670000000     0.083450000000    -0.325349   
O72      O      0.470950000000     0.602330000000     0.084030000000    -0.355806   
O73      O      0.101740000000     0.969660000000     0.084150000000    -0.368811   
O74      O      0.419320000000     0.551080000000     0.083440000000    -0.360505   
O75      O      0.051030000000     0.601780000000     0.084250000000    -0.357453   
O76      O      0.470200000000     0.919250000000     0.083070000000    -0.343566   
O77      O      0.417990000000     0.553040000000     0.490500000000    -0.359825   
O78      O      0.104280000000     0.968850000000     0.491120000000    -0.353447   
O79      O      0.468860000000     0.917770000000     0.490150000000    -0.35033    
O80      O      0.052980000000     0.603850000000     0.491300000000    -0.337857   
O81      O      0.104240000000     0.552240000000     0.491530000000    -0.351939   
O82      O      0.417610000000     0.969380000000     0.490350000000    -0.352821   
O83      O      0.469610000000     0.604120000000     0.491080000000    -0.318829   
O84      O      0.052480000000     0.917800000000     0.490560000000    -0.348325   
O85      O      0.510910000000     0.010790000000     0.017570000000    -0.593114   
O86      O      0.300840000000     0.852020000000     0.237700000000    -0.363217   
O87      O      0.220440000000     0.669080000000     0.238580000000    -0.347658   
O88      O      0.352350000000     0.720280000000     0.238390000000    -0.349624   
O89      O      0.168840000000     0.800290000000     0.238800000000    -0.337835   
O90      O      0.300570000000     0.669320000000     0.238250000000    -0.324904   
O91      O      0.220180000000     0.851840000000     0.237980000000    -0.359424   
O92      O      0.169120000000     0.720480000000     0.239030000000    -0.323528   
O93      O      0.352160000000     0.800600000000     0.238120000000    -0.326287   
O94      O      0.218620000000     0.853770000000     0.331130000000    -0.344198   
O95      O      0.302770000000     0.667610000000     0.331340000000    -0.334137   
O96      O      0.353630000000     0.803110000000     0.331080000000    -0.35431    
O97      O      0.168170000000     0.718450000000     0.332120000000    -0.340046   
O98      O      0.219650000000     0.667240000000     0.331460000000    -0.316484   
O99      O      0.302150000000     0.854350000000     0.330400000000    -0.319318   
O100     O      0.167610000000     0.802090000000     0.331410000000    -0.315937   
O101     O      0.354110000000     0.719130000000     0.331120000000    -0.348756   
O102     O      0.260870000000     0.760770000000     0.304590000000    -0.595992   
O103     O      0.418840000000     0.970770000000     0.583290000000    -0.359798   
O104     O      0.102450000000     0.550310000000     0.584420000000    -0.361439   
O105     O      0.050000000000     0.918670000000     0.583440000000    -0.325367   
O106     O      0.470950000000     0.602330000000     0.584030000000    -0.355802   
O107     O      0.101740000000     0.969660000000     0.584150000000    -0.368801   
O108     O      0.419320000000     0.551080000000     0.583440000000    -0.360503   
O109     O      0.051030000000     0.601780000000     0.584250000000    -0.357449   
O110     O      0.470200000000     0.919250000000     0.583070000000    -0.343569   
O111     O      0.417990000000     0.553040000000     0.990500000000    -0.359525   
O112     O      0.104280000000     0.968850000000     0.991130000000    -0.353148   
O113     O      0.468860000000     0.917770000000     0.990150000000    -0.350011   
O114     O      0.052980000000     0.603850000000     0.991300000000    -0.337557   
O115     O      0.104240000000     0.552240000000     0.991530000000    -0.351642   
O116     O      0.417610000000     0.969380000000     0.990350000000    -0.352504   
O117     O      0.469610000000     0.604120000000     0.991080000000    -0.318536   
O118     O      0.052480000000     0.917800000000     0.990560000000    -0.348013   
O119     O      0.510910000000     0.010790000000     0.517570000000    -0.593131   
O120     O      0.300840000000     0.852020000000     0.737700000000    -0.363214   
O121     O      0.220440000000     0.669080000000     0.738580000000    -0.347658   
O122     O      0.352350000000     0.720280000000     0.738390000000    -0.349623   
O123     O      0.168840000000     0.800290000000     0.738800000000    -0.337831   
O124     O      0.300570000000     0.669320000000     0.738250000000    -0.324908   
O125     O      0.220180000000     0.851840000000     0.737980000000    -0.35942    
O126     O      0.169120000000     0.720480000000     0.739030000000    -0.323528   
O127     O      0.352160000000     0.800600000000     0.738120000000    -0.326287   
O128     O      0.218620000000     0.853770000000     0.831130000000    -0.344167   
O129     O      0.302770000000     0.667610000000     0.831340000000    -0.33413    
O130     O      0.353630000000     0.803110000000     0.831080000000    -0.354315   
O131     O      0.168170000000     0.718450000000     0.832120000000    -0.340053   
O132     O      0.219650000000     0.667240000000     0.831460000000    -0.316491   
O133     O      0.302150000000     0.854350000000     0.830400000000    -0.319321   
O134     O      0.167610000000     0.802090000000     0.831410000000    -0.315902   
O135     O      0.354110000000     0.719130000000     0.831120000000    -0.348749   
O136     O      0.260870000000     0.760770000000     0.804580000000    -0.596061   
O137     O      0.918840000000     0.470770000000     0.083290000000    -0.359868   
O138     O      0.602450000000     0.050310000000     0.084420000000    -0.361415   
O139     O      0.550000000000     0.418670000000     0.083450000000    -0.325342   
O140     O      0.970950000000     0.102330000000     0.084030000000    -0.355707   
O141     O      0.601740000000     0.469660000000     0.084150000000    -0.368841   
O142     O      0.919320000000     0.051080000000     0.083440000000    -0.36051    
O143     O      0.551030000000     0.101780000000     0.084250000000    -0.357402   
O144     O      0.970200000000     0.419250000000     0.083070000000    -0.343498   
O145     O      0.917990000000     0.053040000000     0.490500000000    -0.359827   
O146     O      0.604280000000     0.468850000000     0.491120000000    -0.353476   
O147     O      0.968850000000     0.417770000000     0.490150000000    -0.350341   
O148     O      0.552980000000     0.103850000000     0.491300000000    -0.337805   
O149     O      0.604240000000     0.052240000000     0.491530000000    -0.351902   
O150     O      0.917610000000     0.469380000000     0.490350000000    -0.352926   
O151     O      0.969610000000     0.104120000000     0.491080000000    -0.31873    
O152     O      0.552480000000     0.417800000000     0.490560000000    -0.348312   
O153     O      0.010910000000     0.510790000000     0.017570000000    -0.593115   
O154     O      0.800840000000     0.352020000000     0.237700000000    -0.363186   
O155     O      0.720440000000     0.169080000000     0.238580000000    -0.347654   
O156     O      0.852340000000     0.220280000000     0.238390000000    -0.349706   
O157     O      0.668840000000     0.300300000000     0.238800000000    -0.337851   
O158     O      0.800570000000     0.169320000000     0.238250000000    -0.32492    
O159     O      0.720180000000     0.351840000000     0.237980000000    -0.359453   
O160     O      0.669120000000     0.220480000000     0.239030000000    -0.323481   
O161     O      0.852160000000     0.300590000000     0.238120000000    -0.326217   
O162     O      0.718620000000     0.353770000000     0.331130000000    -0.344263   
O163     O      0.802780000000     0.167610000000     0.331340000000    -0.334133   
O164     O      0.853630000000     0.303110000000     0.331080000000    -0.354318   
O165     O      0.668160000000     0.218450000000     0.332120000000    -0.339932   
O166     O      0.719650000000     0.167240000000     0.331460000000    -0.316385   
O167     O      0.802150000000     0.354350000000     0.330400000000    -0.319321   
O168     O      0.667610000000     0.302090000000     0.331410000000    -0.315846   
O169     O      0.854110000000     0.219130000000     0.331120000000    -0.348815   
O170     O      0.760870000000     0.260770000000     0.304590000000    -0.596028   
O171     O      0.918840000000     0.470770000000     0.583290000000    -0.359865   
O172     O      0.602450000000     0.050310000000     0.584420000000    -0.361408   
O173     O      0.550000000000     0.418670000000     0.583440000000    -0.32536    
O174     O      0.970950000000     0.102330000000     0.584030000000    -0.355704   
O175     O      0.601740000000     0.469660000000     0.584150000000    -0.368831   
O176     O      0.919320000000     0.051080000000     0.583440000000    -0.360508   
O177     O      0.551030000000     0.101780000000     0.584250000000    -0.357398   
O178     O      0.970200000000     0.419250000000     0.583070000000    -0.343501   
O179     O      0.917990000000     0.053040000000     0.990500000000    -0.359527   
O180     O      0.604280000000     0.468850000000     0.991130000000    -0.353177   
O181     O      0.968850000000     0.417770000000     0.990150000000    -0.350023   
O182     O      0.552980000000     0.103850000000     0.991300000000    -0.337505   
O183     O      0.604240000000     0.052240000000     0.991530000000    -0.351605   
O184     O      0.917610000000     0.469380000000     0.990350000000    -0.35261    
O185     O      0.969610000000     0.104120000000     0.991080000000    -0.318437   
O186     O      0.552480000000     0.417800000000     0.990560000000    -0.348      
O187     O      0.010910000000     0.510790000000     0.517570000000    -0.593132   
O188     O      0.800840000000     0.352020000000     0.737700000000    -0.363182   
O189     O      0.720440000000     0.169080000000     0.738580000000    -0.347653   
O190     O      0.852340000000     0.220280000000     0.738390000000    -0.349706   
O191     O      0.668840000000     0.300300000000     0.738800000000    -0.337847   
O192     O      0.800570000000     0.169320000000     0.738250000000    -0.324924   
O193     O      0.720180000000     0.351840000000     0.737980000000    -0.359449   
O194     O      0.669120000000     0.220480000000     0.739030000000    -0.323481   
O195     O      0.852160000000     0.300590000000     0.738120000000    -0.326217   
O196     O      0.718620000000     0.353770000000     0.831130000000    -0.344232   
O197     O      0.802780000000     0.167610000000     0.831340000000    -0.334127   
O198     O      0.853630000000     0.303110000000     0.831080000000    -0.354323   
O199     O      0.668160000000     0.218450000000     0.832120000000    -0.339939   
O200     O      0.719650000000     0.167240000000     0.831460000000    -0.316392   
O201     O      0.802150000000     0.354350000000     0.830400000000    -0.319325   
O202     O      0.667610000000     0.302090000000     0.831410000000    -0.315811   
O203     O      0.854110000000     0.219130000000     0.831120000000    -0.348807   
O204     O      0.760870000000     0.260770000000     0.804580000000    -0.596096   
O205     O      0.918840000000     0.970770000000     0.083290000000    -0.359801   
O206     O      0.602450000000     0.550310000000     0.084420000000    -0.361441   
O207     O      0.550000000000     0.918670000000     0.083450000000    -0.325344   
O208     O      0.970950000000     0.602330000000     0.084030000000    -0.355702   
O209     O      0.601740000000     0.969660000000     0.084150000000    -0.368815   
O210     O      0.919320000000     0.551080000000     0.083440000000    -0.360499   
O211     O      0.551030000000     0.601780000000     0.084250000000    -0.357404   
O212     O      0.970200000000     0.919250000000     0.083070000000    -0.343492   
O213     O      0.917990000000     0.553040000000     0.490500000000    -0.359819   
O214     O      0.604280000000     0.968850000000     0.491120000000    -0.35345    
O215     O      0.968850000000     0.917770000000     0.490150000000    -0.350335   
O216     O      0.552980000000     0.603850000000     0.491300000000    -0.337809   
O217     O      0.604240000000     0.552240000000     0.491530000000    -0.351934   
O218     O      0.917610000000     0.969380000000     0.490350000000    -0.35286    
O219     O      0.969610000000     0.604120000000     0.491080000000    -0.318725   
O220     O      0.552480000000     0.917800000000     0.490560000000    -0.348314   
O221     O      0.010910000000     0.010790000000     0.017570000000    -0.593142   
O222     O      0.800840000000     0.852020000000     0.237700000000    -0.363216   
O223     O      0.720440000000     0.669080000000     0.238580000000    -0.347651   
O224     O      0.852340000000     0.720280000000     0.238390000000    -0.349711   
O225     O      0.668840000000     0.800290000000     0.238800000000    -0.33778    
O226     O      0.800570000000     0.669320000000     0.238250000000    -0.324918   
O227     O      0.720180000000     0.851840000000     0.237980000000    -0.359413   
O228     O      0.669120000000     0.720480000000     0.239030000000    -0.323475   
O229     O      0.852160000000     0.800600000000     0.238120000000    -0.326288   
O230     O      0.718620000000     0.853770000000     0.331130000000    -0.344261   
O231     O      0.802780000000     0.667610000000     0.331340000000    -0.33413    
O232     O      0.853630000000     0.803110000000     0.331080000000    -0.354314   
O233     O      0.668160000000     0.718450000000     0.332120000000    -0.339933   
O234     O      0.719650000000     0.667240000000     0.331460000000    -0.316383   
O235     O      0.802150000000     0.854350000000     0.330400000000    -0.319316   
O236     O      0.667610000000     0.802090000000     0.331410000000    -0.31585    
O237     O      0.854110000000     0.719130000000     0.331120000000    -0.348813   
O238     O      0.760870000000     0.760770000000     0.304590000000    -0.596029   
O239     O      0.918840000000     0.970770000000     0.583290000000    -0.359799   
O240     O      0.602450000000     0.550310000000     0.584420000000    -0.361434   
O241     O      0.550000000000     0.918670000000     0.583440000000    -0.325363   
O242     O      0.970950000000     0.602330000000     0.584030000000    -0.355699   
O243     O      0.601740000000     0.969660000000     0.584150000000    -0.368805   
O244     O      0.919320000000     0.551080000000     0.583440000000    -0.360497   
O245     O      0.551030000000     0.601780000000     0.584250000000    -0.357401   
O246     O      0.970200000000     0.919250000000     0.583070000000    -0.343495   
O247     O      0.917990000000     0.553040000000     0.990500000000    -0.359519   
O248     O      0.604280000000     0.968850000000     0.991130000000    -0.353152   
O249     O      0.968850000000     0.917770000000     0.990150000000    -0.350016   
O250     O      0.552980000000     0.603850000000     0.991300000000    -0.337509   
O251     O      0.604240000000     0.552240000000     0.991530000000    -0.351637   
O252     O      0.917610000000     0.969380000000     0.990350000000    -0.352544   
O253     O      0.969610000000     0.604120000000     0.991080000000    -0.318432   
O254     O      0.552480000000     0.917800000000     0.990560000000    -0.348002   
O255     O      0.010910000000     0.010790000000     0.517570000000    -0.593158   
O256     O      0.800840000000     0.852020000000     0.737700000000    -0.363213   
O257     O      0.720440000000     0.669080000000     0.738580000000    -0.34765    
O258     O      0.852340000000     0.720280000000     0.738390000000    -0.349711   
O259     O      0.668840000000     0.800290000000     0.738800000000    -0.337776   
O260     O      0.800570000000     0.669320000000     0.738250000000    -0.324922   
O261     O      0.720180000000     0.851840000000     0.737980000000    -0.35941    
O262     O      0.669120000000     0.720480000000     0.739030000000    -0.323476   
O263     O      0.852160000000     0.800600000000     0.738120000000    -0.326288   
O264     O      0.718620000000     0.853770000000     0.831130000000    -0.34423    
O265     O      0.802780000000     0.667610000000     0.831340000000    -0.334123   
O266     O      0.853630000000     0.803110000000     0.831080000000    -0.354319   
O267     O      0.668160000000     0.718450000000     0.832120000000    -0.339941   
O268     O      0.719650000000     0.667240000000     0.831460000000    -0.316389   
O269     O      0.802150000000     0.854350000000     0.830400000000    -0.31932    
O270     O      0.667610000000     0.802090000000     0.831410000000    -0.315815   
O271     O      0.854110000000     0.719130000000     0.831120000000    -0.348806   
O272     O      0.760870000000     0.760770000000     0.804580000000    -0.596098   


