data_structure

_audit_creation_method RASPA-1.0
_audit_creation_date 2023-6-4
_audit_author_name 'Poobodin Mano'

_cell_length_a    23.3303
_cell_length_b    25.4876
_cell_length_c    24.0207
_cell_angle_alpha 87.133
_cell_angle_beta  93.8202
_cell_angle_gamma 120.433
_cell_volume      12286

_symmetry_cell_setting          triclinic
_symmetry_space_group_name_Hall 'P 1'
_symmetry_space_group_name_H-M  'P 1'
_symmetry_Int_Tables_number     1

_symmetry_equiv_pos_as_xyz 'x,y,z'

loop_
_atom_site_label
_atom_site_type_symbol
_atom_site_fract_x
_atom_site_fract_y
_atom_site_fract_z
_atom_site_charge
C1       C      0.193190000000     0.275010000000     0.070320000000     0.515242   
C2       C      0.110930000000     0.072200000000     0.067450000000     0.444056   
C3       C      0.233010000000     0.135040000000     0.973000000000     0.496809   
C4       C      0.172890000000     0.234610000000     0.222550000000     0.398479   
C5       C      0.271360000000     0.168490000000     0.246920000000     0.481627   
C6       C      0.385030000000     0.201180000000     0.058370000000     0.468896   
C7       C      0.364100000000     0.334790000000     0.115750000000     0.512838   
C8       C      0.205460000000     0.043900000000     0.174210000000     0.457832   
C9       C      0.121680000000     0.025750000000     0.478020000000     0.385345   
C10      C      0.128300000000     0.172980000000     0.680200000000     0.495442   
C11      C      0.957910000000     0.016440000000     0.558240000000     0.442448   
C12      C      0.223240000000     0.153160000000     0.587860000000     0.466983   
C13      C      0.231840000000     0.027560000000     0.651480000000     0.467681   
C14      C      0.965260000000     0.924450000000     0.667950000000     0.463085   
C15      C      0.063630000000     0.897420000000     0.557870000000     0.384113   
C16      C      0.061820000000     0.035220000000     0.763080000000     0.491822   
C17      C      0.077850000000     0.544050000000     0.182050000000     0.486338   
C18      C      0.284920000000     0.816980000000     0.145710000000     0.379984   
C19      C      0.154510000000     0.685850000000     0.241240000000     0.46712    
C20      C      0.223410000000     0.672550000000     0.028310000000     0.472437   
C21      C      0.321700000000     0.617790000000     0.096440000000     0.46546    
C22      C      0.306780000000     0.702060000000     0.298580000000     0.468889   
C23      C      0.208410000000     0.508080000000     0.191950000000     0.483624   
C24      C      0.410760000000     0.788580000000     0.148360000000     0.384561   
C25      C      0.998820000000     0.429300000000     0.586360000000     0.478824   
C26      C      0.191120000000     0.707300000000     0.586890000000     0.383185   
C27      C      0.011050000000     0.569230000000     0.610270000000     0.462622   
C28      C      0.236780000000     0.577090000000     0.544240000000     0.469343   
C29      C      0.249380000000     0.529680000000     0.687530000000     0.461542   
C30      C      0.083960000000     0.604010000000     0.749420000000     0.463532   
C31      C      0.086450000000     0.413140000000     0.708010000000     0.490903   
C32      C      0.279790000000     0.694150000000     0.701940000000     0.384507   
C33      C      0.638350000000     0.159720000000     0.152300000000     0.484562   
C34      C      0.752850000000     0.012690000000     0.112170000000     0.396269   
C35      C      0.802070000000     0.245300000000     0.078980000000     0.391551   
C36      C      0.612450000000     0.027290000000     0.163310000000     0.481047   
C37      C      0.677910000000     0.018370000000     0.296130000000     0.478599   
C38      C      0.905860000000     0.257970000000     0.201870000000     0.496065   
C39      C      0.744900000000     0.238440000000     0.273250000000     0.47278    
C40      C      0.866510000000     0.088790000000     0.229420000000     0.477683   
C41      C      0.492420000000     0.985760000000     0.684820000000     0.457134   
C42      C      0.680140000000     0.925410000000     0.681150000000     0.479247   
C43      C      0.592340000000     0.985920000000     0.562380000000     0.391789   
C44      C      0.537570000000     0.948070000000     0.810700000000     0.500947   
C45      C      0.700480000000     0.082320000000     0.843000000000     0.499987   
C46      C      0.746600000000     0.114820000000     0.589980000000     0.38401    
C47      C      0.615510000000     0.145770000000     0.671160000000     0.464121   
C48      C      0.795950000000     0.071640000000     0.731680000000     0.462207   
C49      C      0.652250000000     0.510700000000     0.076310000000     0.499899   
C50      C      0.719470000000     0.739330000000     0.059700000000     0.45648    
C51      C      0.603830000000     0.648020000000     0.168210000000     0.501758   
C52      C      0.815040000000     0.600910000000     0.040760000000     0.459113   
C53      C      0.894410000000     0.684120000000     0.163870000000     0.463321   
C54      C      0.714230000000     0.637440000000     0.272100000000     0.488987   
C55      C      0.734150000000     0.498940000000     0.204230000000     0.403312   
C56      C      0.874950000000     0.795310000000     0.142850000000     0.490786   
C57      C      0.471060000000     0.392120000000     0.658690000000     0.391773   
C58      C      0.596820000000     0.634310000000     0.624380000000     0.480063   
C59      C      0.540660000000     0.544930000000     0.719280000000     0.476579   
C60      C      0.583740000000     0.558490000000     0.489960000000     0.400333   
C61      C      0.709780000000     0.522330000000     0.528210000000     0.470259   
C62      C      0.671210000000     0.517040000000     0.774730000000     0.473543   
C63      C      0.629730000000     0.400100000000     0.644070000000     0.483092   
C64      C      0.768880000000     0.675780000000     0.623200000000     0.465933   
C65      C      0.756760000000     0.548630000000     0.851410000000     0.0242949  
C66      C      0.759490000000     0.542090000000     0.915210000000    -0.115254   
C67      C      0.825950000000     0.592870000000     0.939830000000     0.0286361  
C68      C      0.583100000000     0.613370000000     0.401440000000     0.0177201  
C69      C      0.592310000000     0.585290000000     0.350080000000    -0.10111    
C70      C      0.654980000000     0.579060000000     0.355380000000     0.024562   
C71      C      0.564200000000     0.703440000000     0.661970000000     0.0274283  
C72      C      0.609910000000     0.767150000000     0.638100000000    -0.113254   
C73      C      0.633210000000     0.814470000000     0.683590000000     0.0231454  
C74      C      0.652430000000     0.324570000000     0.605160000000     0.0264489  
C75      C      0.584150000000     0.265150000000     0.603080000000    -0.109383   
C76      C      0.590070000000     0.207830000000     0.602390000000     0.0214431  
C77      C      0.770810000000     0.176420000000     0.897760000000     0.0231426  
C78      C      0.761420000000     0.188300000000     0.957710000000    -0.112386   
C79      C      0.817370000000     0.251160000000     0.976810000000     0.0247967  
C80      C      0.593780000000     0.980790000000     0.367530000000     0.0267305  
C81      C      0.600570000000     0.960170000000     0.426950000000    -0.111507   
C82      C      0.550130000000     0.960900000000     0.464330000000     0.0185099  
C83      C      0.664310000000     0.801200000000     0.050020000000     0.02182    
C84      C      0.717600000000     0.869370000000     0.049740000000    -0.108651   
C85      C      0.692400000000     0.906240000000     0.078050000000     0.0163736  
C86      C      0.771260000000     0.431720000000     0.249670000000     0.0193085  
C87      C      0.739630000000     0.366120000000     0.272370000000    -0.111621   
C88      C      0.793190000000     0.349030000000     0.286320000000     0.0261583  
C89      C      0.802550000000     0.226370000000     0.575340000000     0.0166484  
C90      C      0.873120000000     0.278690000000     0.564050000000    -0.110485   
C91      C      0.882060000000     0.341390000000     0.575530000000     0.0209541  
C92      C      0.446060000000     0.841040000000     0.817680000000     0.0299405  
C93      C      0.425730000000     0.829530000000     0.755240000000    -0.113421   
C94      C      0.394880000000     0.762340000000     0.740170000000     0.019282   
C95      C      0.827070000000     0.550040000000     0.523270000000     0.023606   
C96      C      0.838100000000     0.514990000000     0.572810000000    -0.105304   
C97      C      0.898140000000     0.555670000000     0.611150000000     0.0206155  
C98      C      0.430780000000     0.538300000000     0.702980000000     0.025431   
C99      C      0.374630000000     0.484490000000     0.733590000000    -0.10955    
C100     C      0.305610000000     0.469360000000     0.708630000000     0.0212239  
C101     C      0.079320000000     0.607810000000     0.852730000000     0.0248401  
C102     C      0.146440000000     0.650830000000     0.882470000000    -0.113537   
C103     C      0.145310000000     0.638490000000     0.945710000000     0.0234537  
C104     C      0.339940000000     0.642370000000     0.492400000000     0.0213533  
C105     C      0.346030000000     0.692460000000     0.450510000000    -0.11149    
C106     C      0.343640000000     0.675470000000     0.389400000000     0.0248797  
C107     C      0.969170000000     0.355600000000     0.250940000000     0.0257488  
C108     C      0.976160000000     0.402750000000     0.205710000000    -0.112072   
C109     C      0.982240000000     0.460340000000     0.229200000000     0.0260145  
C110     C      0.552650000000     0.968120000000     0.078480000000     0.022454   
C111     C      0.501670000000     0.899990000000     0.074680000000    -0.104966   
C112     C      0.521710000000     0.859750000000     0.111830000000     0.0275149  
C113     C      0.972930000000     0.697310000000     0.243850000000     0.0240164  
C114     C      0.041550000000     0.747300000000     0.266150000000    -0.110105   
C115     C      0.099550000000     0.746880000000     0.239700000000     0.022867   
C116     C      0.481490000000     0.598360000000     0.153490000000     0.0282947  
C117     C      0.469420000000     0.602570000000     0.090130000000    -0.105909   
C118     C      0.434510000000     0.639110000000     0.075050000000     0.0215841  
C119     C      0.808730000000     0.784960000000     0.617770000000     0.0161385  
C120     C      0.796470000000     0.800020000000     0.676170000000    -0.101729   
C121     C      0.849470000000     0.863230000000     0.697120000000     0.0187448  
C122     C      0.356360000000     0.362890000000     0.624490000000     0.0175937  
C123     C      0.298610000000     0.298760000000     0.613840000000    -0.10827    
C124     C      0.322350000000     0.257010000000     0.594160000000     0.0283844  
C125     C      0.896240000000     0.112080000000     0.677610000000     0.0132244  
C126     C      0.889230000000     0.057350000000     0.646620000000    -0.0822425  
C127     C      0.896260000000     0.066670000000     0.582970000000     0.00138601 
C128     C      0.379670000000     0.972170000000     0.684670000000     0.0246539  
C129     C      0.357310000000     0.987370000000     0.627410000000    -0.107861   
C130     C      0.338870000000     0.036800000000     0.629630000000     0.0209109  
C131     C      0.202100000000     0.805080000000     0.554640000000     0.0240093  
C132     C      0.130700000000     0.793290000000     0.545230000000    -0.107964   
C133     C      0.124700000000     0.842880000000     0.573330000000     0.0179131  
C134     C      0.071040000000     0.309470000000     0.710990000000     0.028478   
C135     C      0.135620000000     0.322630000000     0.685190000000    -0.110904   
C136     C      0.127180000000     0.267560000000     0.654350000000     0.0225707  
C137     C      0.066590000000     0.998040000000     0.860240000000     0.0228588  
C138     C      0.090300000000     0.045150000000     0.906210000000    -0.107883   
C139     C      0.153250000000     0.105570000000     0.891580000000     0.0258869  
C140     C      0.170420000000     0.036000000000     0.386650000000     0.0204729  
C141     C      0.215650000000     0.100010000000     0.362870000000    -0.108937   
C142     C      0.266050000000     0.099570000000     0.325150000000     0.0274273  
C143     C      0.982420000000     0.870730000000     0.102540000000     0.0267899  
C144     C      0.992500000000     0.934660000000     0.094320000000    -0.111597   
C145     C      0.029910000000     0.966660000000     0.041380000000     0.0203573  
C146     C      0.554250000000     0.448610000000     0.013570000000     0.0236285  
C147     C      0.504390000000     0.405120000000     0.056690000000    -0.104475   
C148     C      0.457850000000     0.427090000000     0.073840000000     0.024808   
C149     C      0.977990000000     0.097220000000     0.241560000000     0.0205075  
C150     C      0.036580000000     0.148010000000     0.275810000000    -0.0984408  
C151     C      0.062280000000     0.212590000000     0.250000000000     0.018468   
C152     C      0.480570000000     0.184280000000     0.071280000000     0.0241591  
C153     C      0.551270000000     0.210480000000     0.050150000000    -0.112793   
C154     C      0.581080000000     0.169040000000     0.063610000000     0.0239123  
C155     C      0.253870000000     0.978640000000     0.201420000000     0.014311   
C156     C      0.238810000000     0.928670000000     0.160230000000    -0.105218   
C157     C      0.298030000000     0.918850000000     0.157260000000     0.0145827  
C158     C      0.128530000000     0.320090000000     0.101420000000     0.0272457  
C159     C      0.182560000000     0.380410000000     0.127350000000    -0.112353   
C160     C      0.154670000000     0.397310000000     0.174890000000     0.0267569  
Co1      Co     0.253350000000     0.233820000000     0.167200000000     1.11137    
Co2      Co     0.260190000000     0.112080000000     0.084860000000     1.09135    
Co3      Co     0.279970000000     0.238030000000     0.034240000000     1.13655    
Co4      Co     0.163640000000     0.129040000000     0.164400000000     0.883923   
Co5      Co     0.140700000000     0.031300000000     0.570890000000     0.930182   
Co6      Co     0.025740000000     0.059300000000     0.650170000000     1.15705    
Co7      Co     0.044820000000     0.971070000000     0.579590000000     0.849795   
Co8      Co     0.169000000000     0.081820000000     0.693490000000     1.12741    
Co9      Co     0.180240000000     0.583950000000     0.110450000000     1.12229    
Co10     Co     0.275220000000     0.734900000000     0.191230000000     0.896269   
Co11     Co     0.208010000000     0.601690000000     0.244080000000     1.12101    
Co12     Co     0.308090000000     0.714520000000     0.125170000000     0.898893   
Co13     Co     0.135400000000     0.482810000000     0.603170000000     1.12791    
Co14     Co     0.142900000000     0.629350000000     0.646510000000     0.887139   
Co15     Co     0.045770000000     0.497600000000     0.692780000000     1.10918    
Co16     Co     0.220420000000     0.616660000000     0.644700000000     0.89019    
Co17     Co     0.673810000000     0.115580000000     0.252900000000     1.1173     
Co18     Co     0.832310000000     0.148310000000     0.140400000000     0.756432   
Co19     Co     0.773310000000     0.207130000000     0.168590000000     1.17098    
Co20     Co     0.743510000000     0.060010000000     0.191670000000     1.13919    
Co21     Co     0.602720000000     0.070620000000     0.761580000000     1.12795    
Co22     Co     0.695810000000     0.038820000000     0.652230000000     0.868187   
Co23     Co     0.615200000000     0.041810000000     0.638770000000     0.854505   
Co24     Co     0.661990000000     0.977630000000     0.771800000000     1.15943    
Co25     Co     0.772910000000     0.585160000000     0.150090000000     1.104      
Co26     Co     0.749740000000     0.717450000000     0.181300000000     1.10764    
Co27     Co     0.652350000000     0.569430000000     0.166580000000     1.01933    
Co28     Co     0.806810000000     0.697260000000     0.072290000000     1.06569    
Co29     Co     0.579850000000     0.462560000000     0.572090000000     0.744358   
Co30     Co     0.679650000000     0.603770000000     0.699200000000     1.0862     
Co31     Co     0.580310000000     0.468110000000     0.678240000000     1.16547    
Co32     Co     0.651350000000     0.575050000000     0.573550000000     1.14882    
H1       H      0.792980000000     0.538560000000     0.833820000000     0.0324007  
H2       H      0.771230000000     0.596580000000     0.840230000000     0.032679   
H3       H      0.859550000000     0.556760000000     0.009230000000     0.107357   
H4       H      0.718100000000     0.544870000000     0.932550000000     0.0691658  
H5       H      0.753720000000     0.496920000000     0.926850000000     0.0572882  
H6       H      0.828610000000     0.637620000000     0.933850000000     0.0266248  
H7       H      0.867640000000     0.595600000000     0.917430000000     0.0209229  
H8       H      0.656510000000     0.469250000000     0.850020000000     0.105786   
H9       H      0.550230000000     0.632160000000     0.388840000000     0.0272728  
H10      H      0.631360000000     0.652190000000     0.416950000000     0.0479017  
H11      H      0.747620000000     0.665490000000     0.353690000000     0.110805   
H12      H      0.547640000000     0.539600000000     0.343070000000     0.0535548  
H13      H      0.594130000000     0.613510000000     0.312670000000     0.0612931  
H14      H      0.643880000000     0.536210000000     0.335460000000     0.0342733  
H15      H      0.669360000000     0.575150000000     0.399740000000     0.0411176  
H16      H      0.500150000000     0.534770000000     0.438050000000     0.101333   
H17      H      0.514730000000     0.697960000000     0.668730000000     0.0240888  
H18      H      0.584320000000     0.696490000000     0.703250000000     0.0291974  
H19      H      0.712640000000     0.881480000000     0.632670000000     0.101702   
H20      H      0.653610000000     0.768990000000     0.620300000000     0.062082   
H21      H      0.582490000000     0.777500000000     0.603790000000     0.0606852  
H22      H      0.660120000000     0.804200000000     0.718370000000     0.0205746  
H23      H      0.588320000000     0.811650000000     0.700280000000     0.0395246  
H24      H      0.516280000000     0.642220000000     0.593260000000     0.106785   
H25      H      0.660660000000     0.349220000000     0.564240000000     0.0333474  
H26      H      0.694080000000     0.315250000000     0.612200000000     0.0234441  
H27      H      0.645250000000     0.235770000000     0.682540000000     0.103338   
H28      H      0.554720000000     0.261390000000     0.639240000000     0.0633521  
H29      H      0.555170000000     0.266250000000     0.564820000000     0.0563341  
H30      H      0.621660000000     0.211500000000     0.568030000000     0.034825   
H31      H      0.539400000000     0.168000000000     0.594440000000     0.0377277  
H32      H      0.679290000000     0.361570000000     0.688210000000     0.104282   
H33      H      0.824650000000     0.197660000000     0.890050000000     0.0264799  
H34      H      0.749860000000     0.198020000000     0.868090000000     0.0382771  
H35      H      0.793770000000     0.306750000000     0.024230000000     0.103094   
H36      H      0.712330000000     0.185330000000     0.959390000000     0.0614384  
H37      H      0.761620000000     0.153030000000     0.986730000000     0.0757913  
H38      H      0.825210000000     0.285600000000     0.943290000000     0.0212631  
H39      H      0.864780000000     0.250810000000     0.984050000000     0.0298282  
H40      H      0.754850000000     0.086460000000     0.915820000000     0.102791   
H41      H      0.605580000000     0.028880000000     0.368130000000     0.0288675  
H42      H      0.541370000000     0.953040000000     0.351200000000     0.0242473  
H43      H      0.558750000000     0.902370000000     0.527430000000     0.104195   
H44      H      0.592330000000     0.913200000000     0.426530000000     0.0571885  
H45      H      0.651970000000     0.991010000000     0.444130000000     0.0711246  
H46      H      0.498800000000     0.926680000000     0.449650000000     0.0272882  
H47      H      0.554300000000     0.006420000000     0.462230000000     0.042479   
H48      H      0.623490000000     0.928390000000     0.322110000000     0.106991   
H49      H      0.619950000000     0.794610000000     0.024060000000     0.021239   
H50      H      0.647420000000     0.785270000000     0.093070000000     0.0345434  
H51      H      0.747400000000     0.989260000000     0.029870000000     0.0977433  
H52      H      0.763900000000     0.876130000000     0.072430000000     0.0667123  
H53      H      0.729110000000     0.885600000000     0.005850000000     0.0532984  
H54      H      0.686300000000     0.892670000000     0.122960000000     0.0453299  
H55      H      0.642860000000     0.894520000000     0.058790000000     0.0239673  
H56      H      0.681510000000     0.756080000000     0.984530000000     0.100749   
H57      H      0.797200000000     0.435230000000     0.211190000000     0.0476206  
H58      H      0.808630000000     0.463260000000     0.281050000000     0.0313931  
H59      H      0.758480000000     0.278160000000     0.350020000000     0.103117   
H60      H      0.713150000000     0.361580000000     0.310720000000     0.0552061  
H61      H      0.703050000000     0.334750000000     0.240490000000     0.0709103  
H62      H      0.828900000000     0.379610000000     0.319080000000     0.0207284  
H63      H      0.822020000000     0.355680000000     0.248900000000     0.0419499  
H64      H      0.676630000000     0.427700000000     0.257940000000     0.0992811  
H65      H      0.765870000000     0.230550000000     0.546280000000     0.0346331  
H66      H      0.791360000000     0.229930000000     0.618870000000     0.0453761  
H67      H      0.950980000000     0.390200000000     0.511300000000     0.101857   
H68      H      0.909980000000     0.272380000000     0.590920000000     0.0583836  
H69      H      0.882990000000     0.277010000000     0.519690000000     0.0550792  
H70      H      0.879550000000     0.345820000000     0.621000000000     0.0351235  
H71      H      0.841010000000     0.345600000000     0.553650000000     0.0230445  
H72      H      0.832170000000     0.164180000000     0.545810000000     0.0989439  
H73      H      0.481460000000     0.825040000000     0.830550000000     0.0314343  
H74      H      0.401280000000     0.815000000000     0.842740000000     0.0225733  
H75      H      0.302410000000     0.733550000000     0.779690000000     0.101973   
H76      H      0.390410000000     0.845700000000     0.742930000000     0.0630537  
H77      H      0.470450000000     0.856540000000     0.730360000000     0.0758427  
H78      H      0.415260000000     0.739120000000     0.768320000000     0.0289037  
H79      H      0.409360000000     0.760850000000     0.697340000000     0.0454712  
H80      H      0.448010000000     0.920980000000     0.846720000000     0.101553   
H81      H      0.858760000000     0.554220000000     0.488840000000     0.025765   
H82      H      0.841430000000     0.597000000000     0.534990000000     0.0438456  
H83      H      0.970830000000     0.602430000000     0.548420000000     0.103704   
H84      H      0.793610000000     0.493760000000     0.598660000000     0.0619757  
H85      H      0.843580000000     0.477460000000     0.557250000000     0.0557736  
H86      H      0.894310000000     0.529560000000     0.650580000000     0.0405361  
H87      H      0.896070000000     0.596380000000     0.622610000000     0.037702   
H88      H      0.742000000000     0.479600000000     0.477920000000     0.100975   
H89      H      0.421420000000     0.577010000000     0.699420000000     0.031274   
H90      H      0.432040000000     0.525290000000     0.659730000000     0.0433737  
H91      H      0.312810000000     0.542590000000     0.756220000000     0.104272   
H92      H      0.380390000000     0.444040000000     0.730810000000     0.0583441  
H93      H      0.378380000000     0.494830000000     0.778580000000     0.0552224  
H94      H      0.267970000000     0.426750000000     0.728750000000     0.0220123  
H95      H      0.302700000000     0.462070000000     0.663030000000     0.0325056  
H96      H      0.507080000000     0.589200000000     0.766180000000     0.0994936  
H97      H      0.038440000000     0.607180000000     0.874610000000     0.0229245  
H98      H      0.070530000000     0.560620000000     0.853980000000     0.0361993  
H99      H      0.252340000000     0.702060000000     0.947870000000     0.105225   
H100     H      0.185640000000     0.644940000000     0.864750000000     0.0649157  
H101     H      0.158970000000     0.698830000000     0.874830000000     0.059169   
H102     H      0.129050000000     0.589650000000     0.953810000000     0.0246967  
H103     H      0.109240000000     0.648470000000     0.963760000000     0.0361073  
H104     H      0.076530000000     0.669820000000     0.790030000000     0.107061   
H105     H      0.361450000000     0.663630000000     0.533590000000     0.0451112  
H106     H      0.369690000000     0.622440000000     0.479570000000     0.0261311  
H107     H      0.348290000000     0.760940000000     0.364860000000     0.105391   
H108     H      0.305520000000     0.702240000000     0.456710000000     0.0652109  
H109     H      0.394170000000     0.734880000000     0.459370000000     0.0521863  
H110     H      0.301870000000     0.628260000000     0.382490000000     0.0299251  
H111     H      0.390790000000     0.677190000000     0.380770000000     0.0315344  
H112     H      0.244100000000     0.571670000000     0.459690000000     0.101316   
H113     H      0.924910000000     0.342020000000     0.275650000000     0.038286   
H114     H      0.013860000000     0.375660000000     0.280050000000     0.0239487  
H115     H      0.979280000000     0.510830000000     0.155240000000     0.109983   
H116     H      0.021140000000     0.415170000000     0.182530000000     0.0625933  
H117     H      0.932480000000     0.382250000000     0.175530000000     0.0689246  
H118     H      0.013260000000     0.473530000000     0.268860000000     0.0333897  
H119     H      0.932130000000     0.451590000000     0.238650000000     0.0245422  
H120     H      0.008310000000     0.304490000000     0.215640000000     0.0981914  
H121     H      0.537730000000     0.993430000000     0.047540000000     0.0270133  
H122     H      0.601990000000     0.976170000000     0.067210000000     0.0410268  
H123     H      0.496420000000     0.837840000000     0.198320000000     0.108313   
H124     H      0.452370000000     0.892740000000     0.084910000000     0.0716845  
H125     H      0.496990000000     0.886700000000     0.030480000000     0.056029   
H126     H      0.573090000000     0.887320000000     0.130310000000     0.0326801  
H127     H      0.521740000000     0.824880000000     0.085780000000     0.0305536  
H128     H      0.509910000000     0.977650000000     0.151910000000     0.105379   
H129     H      0.935250000000     0.693140000000     0.272550000000     0.0434749  
H130     H      0.970910000000     0.652780000000     0.243890000000     0.0398375  
H131     H      0.083530000000     0.671630000000     0.296670000000     0.103175   
H132     H      0.045700000000     0.792420000000     0.258000000000     0.0517173  
H133     H      0.045720000000     0.741800000000     0.312200000000     0.0523602  
H134     H      0.145930000000     0.790390000000     0.249920000000     0.0332045  
H135     H      0.092070000000     0.744820000000     0.193510000000     0.0401882  
H136     H      0.995520000000     0.744180000000     0.162770000000     0.102672   
H137     H      0.478980000000     0.554260000000     0.164130000000     0.0287497  
H138     H      0.441560000000     0.598200000000     0.176480000000     0.0343766  
H139     H      0.339600000000     0.560860000000     0.051700000000     0.0998451  
H140     H      0.517590000000     0.624180000000     0.069290000000     0.0650378  
H141     H      0.439090000000     0.555910000000     0.073250000000     0.0535548  
H142     H      0.447020000000     0.658180000000     0.032040000000     0.0275824  
H143     H      0.453860000000     0.678500000000     0.103250000000     0.0442886  
H144     H      0.548160000000     0.685520000000     0.191780000000     0.104978   
H145     H      0.852010000000     0.824490000000     0.598480000000     0.0486609  
H146     H      0.764940000000     0.773860000000     0.588870000000     0.0429811  
H147     H      0.924630000000     0.836850000000     0.700730000000     0.10469    
H148     H      0.747660000000     0.797400000000     0.674880000000     0.0477957  
H149     H      0.793370000000     0.765470000000     0.707940000000     0.0483768  
H150     H      0.842150000000     0.866990000000     0.741670000000     0.0252277  
H151     H      0.842100000000     0.897840000000     0.672740000000     0.036841   
H152     H      0.863990000000     0.742200000000     0.646360000000     0.105162   
H153     H      0.336880000000     0.390500000000     0.640700000000     0.0238779  
H154     H      0.379060000000     0.384070000000     0.584150000000     0.0428713  
H155     H      0.259400000000     0.214530000000     0.521730000000     0.106672   
H156     H      0.271450000000     0.279280000000     0.652640000000     0.0563796  
H157     H      0.263970000000     0.301940000000     0.581560000000     0.0530828  
H158     H      0.341560000000     0.240300000000     0.630240000000     0.0380975  
H159     H      0.363720000000     0.282310000000     0.565410000000     0.0298547  
H160     H      0.387310000000     0.339660000000     0.704100000000     0.101221   
H161     H      0.876590000000     0.136930000000     0.650960000000     0.0432472  
H162     H      0.949860000000     0.144840000000     0.687010000000     0.0226017  
H163     H      0.854890000000     0.975090000000     0.552260000000     0.107349   
H164     H      0.927690000000     0.048100000000     0.665450000000     0.0075584  
H165     H      0.840590000000     0.016040000000     0.654160000000     0.0715049  
H166     H      0.941160000000     0.111120000000     0.573360000000     0.0368398  
H167     H      0.852710000000     0.068080000000     0.563330000000     0.0498983  
H168     H      0.882440000000     0.073740000000     0.761080000000     0.100445   
H169     H      0.335570000000     0.935590000000     0.705780000000     0.0260935  
H170     H      0.403140000000     0.012420000000     0.712140000000     0.0357914  
H171     H      0.287140000000     0.004010000000     0.706540000000     0.101023   
H172     H      0.398360000000     0.004020000000     0.598160000000     0.0624722  
H173     H      0.314310000000     0.945370000000     0.609520000000     0.0565188  
H174     H      0.326740000000     0.046440000000     0.586150000000     0.0448265  
H175     H      0.382430000000     0.079490000000     0.645760000000     0.0288481  
H176     H      0.407180000000     0.911290000000     0.652620000000     0.103878   
H177     H      0.222350000000     0.822070000000     0.597480000000     0.0366898  
H178     H      0.234850000000     0.841460000000     0.525060000000     0.0234538  
H179     H      0.024560000000     0.807510000000     0.534650000000     0.104871   
H180     H      0.119000000000     0.793440000000     0.499600000000     0.0578194  
H181     H      0.094220000000     0.748210000000     0.563030000000     0.0727871  
H182     H      0.170360000000     0.887530000000     0.565400000000     0.0456836  
H183     H      0.122290000000     0.834200000000     0.619200000000     0.0443664  
H184     H      0.223940000000     0.746620000000     0.509040000000     0.103112   
H185     H      0.056760000000     0.272120000000     0.742680000000     0.0248758  
H186     H      0.029840000000     0.293890000000     0.678400000000     0.0289963  
H187     H      0.185740000000     0.253620000000     0.721300000000     0.0974317  
H188     H      0.152080000000     0.361080000000     0.654700000000     0.0604937  
H189     H      0.175310000000     0.336770000000     0.718720000000     0.0540093  
H190     H      0.159060000000     0.284200000000     0.617810000000     0.024084   
H191     H      0.074860000000     0.239020000000     0.637950000000     0.034019   
H192     H      0.073840000000     0.361550000000     0.780720000000     0.10228    
H193     H      0.028720000000     0.953060000000     0.877150000000     0.0229952  
H194     H      0.108550000000     0.993270000000     0.847160000000     0.0381105  
H195     H      0.227550000000     0.080130000000     0.909810000000     0.100867   
H196     H      0.049630000000     0.053960000000     0.914640000000     0.0550867  
H197     H      0.100080000000     0.024990000000     0.945100000000     0.0595383  
H198     H      0.147060000000     0.144440000000     0.901820000000     0.0388593  
H199     H      0.161920000000     0.110010000000     0.846230000000     0.0293903  
H200     H      0.992460000000     0.016170000000     0.821590000000     0.100712   
H201     H      0.201120000000     0.019270000000     0.409870000000     0.0427869  
H202     H      0.143160000000     0.004260000000     0.351750000000     0.0271819  
H203     H      0.351540000000     0.184980000000     0.301140000000     0.109542   
H204     H      0.184220000000     0.115390000000     0.338970000000     0.0690866  
H205     H      0.242790000000     0.132060000000     0.397560000000     0.0657101  
H206     H      0.240820000000     0.060490000000     0.296400000000     0.0342359  
H207     H      0.303250000000     0.093350000000     0.351570000000     0.0248189  
H208     H      0.082030000000     0.038960000000     0.402410000000     0.105484   
H209     H      0.031550000000     0.874160000000     0.111740000000     0.021531   
H210     H      0.960990000000     0.844660000000     0.063410000000     0.0290241  
H211     H      0.013850000000     0.042420000000     0.039400000000     0.102095   
H212     H      0.943300000000     0.931970000000     0.091310000000     0.0595008  
H213     H      0.020930000000     0.961720000000     0.131620000000     0.0648959  
H214     H      0.995970000000     0.946450000000     0.004030000000     0.0211399  
H215     H      0.073080000000     0.959950000000     0.037800000000     0.0316909  
H216     H      0.961670000000     0.849970000000     0.189940000000     0.102123   
H217     H      0.547630000000     0.488230000000     0.002550000000     0.0372281  
H218     H      0.545080000000     0.423860000000     0.974150000000     0.0225807  
H219     H      0.436710000000     0.408200000000     0.161120000000     0.105433   
H220     H      0.473910000000     0.359110000000     0.038530000000     0.060514   
H221     H      0.531220000000     0.400040000000     0.094750000000     0.0623425  
H222     H      0.424070000000     0.424690000000     0.037840000000     0.0303483  
H223     H      0.487680000000     0.475460000000     0.086440000000     0.0354112  
H224     H      0.648590000000     0.450920000000     0.018670000000     0.102768   
H225     H      0.981240000000     0.055210000000     0.246950000000     0.0250748  
H226     H      0.981900000000     0.108270000000     0.196100000000     0.0441829  
H227     H      0.159170000000     0.283830000000     0.281520000000     0.100907   
H228     H      0.022440000000     0.146900000000     0.319350000000     0.0556163  
H229     H      0.077340000000     0.137290000000     0.279150000000     0.0551685  
H230     H      0.042430000000     0.236250000000     0.273060000000     0.0274429  
H231     H      0.044070000000     0.210880000000     0.205810000000     0.0440918  
H232     H      0.901630000000     0.064190000000     0.301530000000     0.109078   
H233     H      0.483150000000     0.187440000000     0.117410000000     0.0374112  
H234     H      0.449700000000     0.135600000000     0.059720000000     0.030414   
H235     H      0.544420000000     0.147330000000     0.146940000000     0.103594   
H236     H      0.549560000000     0.216800000000     0.004050000000     0.0507197  
H237     H      0.584700000000     0.255910000000     0.068610000000     0.0599356  
H238     H      0.631100000000     0.190970000000     0.045880000000     0.0371534  
H239     H      0.549460000000     0.124410000000     0.043240000000     0.0257474  
H240     H      0.473100000000     0.252650000000     0.018040000000     0.0987838  
H241     H      0.302460000000     0.020020000000     0.192850000000     0.0372099  
H242     H      0.257900000000     0.962590000000     0.244610000000     0.0272476  
H243     H      0.262440000000     0.863800000000     0.083280000000     0.102055   
H244     H      0.194620000000     0.885540000000     0.173780000000     0.0563618  
H245     H      0.226880000000     0.941470000000     0.117920000000     0.0479863  
H246     H      0.316720000000     0.915300000000     0.200280000000     0.0454558  
H247     H      0.339190000000     0.958990000000     0.136440000000     0.0253821  
H248     H      0.152960000000     0.957770000000     0.210130000000     0.0970267  
H249     H      0.087300000000     0.325990000000     0.082430000000     0.0236589  
H250     H      0.107070000000     0.283880000000     0.134190000000     0.039974   
H251     H      0.236820000000     0.450620000000     0.233010000000     0.104552   
H252     H      0.225540000000     0.376030000000     0.144130000000     0.0729777  
H253     H      0.200260000000     0.417110000000     0.094770000000     0.061066   
H254     H      0.136510000000     0.360230000000     0.207110000000     0.0228966  
H255     H      0.110990000000     0.400980000000     0.158870000000     0.0293159  
H256     H      0.144520000000     0.307770000000     0.016510000000     0.104219   
N1       N      0.834950000000     0.580930000000     0.998930000000    -0.230413   
N2       N      0.690060000000     0.507430000000     0.827110000000    -0.229691   
N3       N      0.711140000000     0.630890000000     0.328480000000    -0.234453   
N4       N      0.550700000000     0.566590000000     0.444870000000    -0.212698   
N5       N      0.677880000000     0.875580000000     0.661340000000    -0.23277    
N6       N      0.555850000000     0.657630000000     0.623130000000    -0.234596   
N7       N      0.618590000000     0.198980000000     0.655800000000    -0.22882    
N8       N      0.656410000000     0.363530000000     0.649850000000    -0.234691   
N9       N      0.801510000000     0.269700000000     0.027570000000    -0.213157   
N10      N      0.739750000000     0.111010000000     0.888590000000    -0.23662    
N11      N      0.562230000000     0.944810000000     0.521260000000    -0.210229   
N12      N      0.636710000000     0.973050000000     0.330810000000    -0.231375   
N13      N      0.736700000000     0.972230000000     0.070720000000    -0.211552   
N14      N      0.688810000000     0.764100000000     0.027390000000    -0.227388   
N15      N      0.763400000000     0.286090000000     0.307000000000    -0.229203   
N16      N      0.721120000000     0.449630000000     0.237070000000    -0.213505   
N17      N      0.945330000000     0.389580000000     0.554210000000    -0.23314    
N18      N      0.796650000000     0.166840000000     0.567980000000    -0.207928   
N19      N      0.322250000000     0.730260000000     0.743120000000    -0.208784   
N20      N      0.476990000000     0.906060000000     0.829180000000    -0.238817   
N21      N      0.961040000000     0.575420000000     0.584720000000    -0.226422   
N22      N      0.757090000000     0.516640000000     0.503770000000    -0.230154   
N23      N      0.291600000000     0.517660000000     0.719740000000    -0.22761    
N24      N      0.494770000000     0.558900000000     0.733690000000    -0.232886   
N25      N      0.211510000000     0.676190000000     0.972610000000    -0.231381   
N26      N      0.078160000000     0.629600000000     0.795360000000    -0.228736   
N27      N      0.334520000000     0.717630000000     0.351020000000    -0.230139   
N28      N      0.270060000000     0.594030000000     0.496260000000    -0.227919   
N29      N      0.011110000000     0.509660000000     0.187430000000    -0.234946   
N30      N      0.964100000000     0.302740000000     0.224530000000    -0.236016   
N31      N      0.476570000000     0.828810000000     0.157280000000    -0.21015    
N32      N      0.554990000000     0.989990000000     0.134310000000    -0.231301   
N33      N      0.108150000000     0.696220000000     0.261230000000    -0.226775   
N34      N      0.957110000000     0.712360000000     0.187290000000    -0.223583   
N35      N      0.361830000000     0.599860000000     0.076050000000    -0.226871   
N36      N      0.546560000000     0.648920000000     0.172460000000    -0.239317   
N37      N      0.916520000000     0.873230000000     0.691760000000    -0.227498   
N38      N      0.820720000000     0.733720000000     0.623100000000    -0.225258   
N39      N      0.267640000000     0.206610000000     0.563860000000    -0.230059   
N40      N      0.404660000000     0.361370000000     0.665660000000    -0.211668   
N41      N      0.899500000000     0.016000000000     0.559220000000    -0.226469   
N42      N      0.861730000000     0.090590000000     0.730350000000    -0.225931   
N43      N      0.283040000000     0.017980000000     0.665530000000    -0.229914   
N44      N      0.425610000000     0.950520000000     0.676230000000    -0.230032   
N45      N      0.065790000000     0.845740000000     0.552390000000    -0.207743   
N46      N      0.205300000000     0.750270000000     0.546150000000    -0.210134   
N47      N      0.147830000000     0.231550000000     0.690550000000    -0.23839    
N48      N      0.079170000000     0.363540000000     0.737670000000    -0.236938   
N49      N      0.210930000000     0.108620000000     0.922520000000    -0.239762   
N50      N      0.035470000000     0.015190000000     0.813670000000    -0.235167   
N51      N      0.300640000000     0.156120000000     0.292330000000    -0.230491   
N52      N      0.121390000000     0.035480000000     0.422020000000    -0.208945   
N53      N      0.051540000000     0.031480000000     0.042950000000    -0.226838   
N54      N      0.939900000000     0.839320000000     0.149560000000    -0.237568   
N55      N      0.419210000000     0.390740000000     0.121130000000    -0.239298   
N56      N      0.623040000000     0.470480000000     0.034260000000    -0.23588    
N57      N      0.135470000000     0.248500000000     0.253000000000    -0.215392   
N58      N      0.913470000000     0.083220000000     0.261390000000    -0.229766   
N59      N      0.585780000000     0.159010000000     0.123890000000    -0.233255   
N60      N      0.448400000000     0.217550000000     0.047290000000    -0.229541   
N61      N      0.278750000000     0.864480000000     0.125000000000    -0.208646   
N62      N      0.199700000000     0.992020000000     0.197650000000    -0.232835   
N63      N      0.205620000000     0.453860000000     0.201420000000    -0.235469   
N64      N      0.155020000000     0.300690000000     0.058290000000    -0.238486   
O1       O      0.209120000000     0.268560000000     0.120080000000    -0.445995   
O2       O      0.160800000000     0.063300000000     0.067880000000    -0.416079   
O3       O      0.217860000000     0.171860000000     0.989550000000    -0.469799   
O4       O      0.144080000000     0.191890000000     0.186360000000    -0.436266   
O5       O      0.267000000000     0.120760000000     0.005460000000    -0.473123   
O6       O      0.236480000000     0.265760000000     0.227110000000    -0.412986   
O7       O      0.112700000000     0.113080000000     0.097220000000    -0.418504   
O8       O      0.213670000000     0.258680000000     0.031580000000    -0.476157   
O9       O      0.305060000000     0.210610000000     0.213610000000    -0.438729   
O10      O      0.353260000000     0.158540000000     0.093520000000    -0.441238   
O11      O      0.343070000000     0.311700000000     0.068320000000    -0.482618   
O12      O      0.155460000000     0.049690000000     0.165920000000    -0.423841   
O13      O      0.260140000000     0.087530000000     0.159930000000    -0.458333   
O14      O      0.334330000000     0.306110000000     0.158510000000    -0.442552   
O15      O      0.209880000000     0.136990000000     0.235880000000    -0.452564   
O16      O      0.356330000000     0.225930000000     0.029960000000    -0.444372   
O17      O      0.251200000000     0.184700000000     0.108260000000    -0.567344   
O18      O      0.170420000000     0.025050000000     0.504150000000    -0.382747   
O19      O      0.083060000000     0.143780000000     0.643630000000    -0.465373   
O20      O      0.958740000000     0.967250000000     0.561170000000    -0.365905   
O21      O      0.231980000000     0.139880000000     0.638750000000    -0.432046   
O22      O      0.010490000000     0.062480000000     0.573980000000    -0.457867   
O23      O      0.175530000000     0.114690000000     0.557340000000    -0.409918   
O24      O      0.154860000000     0.147220000000     0.708610000000    -0.472675   
O25      O      0.072730000000     0.018000000000     0.505740000000    -0.416582   
O26      O      0.224820000000     0.045930000000     0.603280000000    -0.399163   
O27      O      0.960610000000     0.972160000000     0.662450000000    -0.437763   
O28      O      0.013560000000     0.901370000000     0.538860000000    -0.366324   
O29      O      0.111720000000     0.032110000000     0.749940000000    -0.45465    
O30      O      0.036070000000     0.058170000000     0.729400000000    -0.472862   
O31      O      0.112290000000     0.942980000000     0.583220000000    -0.43329    
O32      O      0.192560000000     0.021470000000     0.687760000000    -0.455676   
O33      O      0.011200000000     0.922180000000     0.645250000000    -0.394094   
O34      O      0.095830000000     0.041500000000     0.634000000000    -0.590892   
O35      O      0.100000000000     0.572230000000     0.136750000000    -0.455702   
O36      O      0.303440000000     0.815460000000     0.196390000000    -0.379426   
O37      O      0.168890000000     0.648790000000     0.267200000000    -0.440896   
O38      O      0.282010000000     0.696080000000     0.048370000000    -0.400659   
O39      O      0.186460000000     0.716180000000     0.199300000000    -0.401838   
O40      O      0.176700000000     0.641790000000     0.060140000000    -0.45512    
O41      O      0.270530000000     0.771920000000     0.114510000000    -0.424953   
O42      O      0.117590000000     0.543660000000     0.220480000000    -0.459295   
O43      O      0.259880000000     0.590110000000     0.081330000000    -0.441888   
O44      O      0.289830000000     0.735510000000     0.270710000000    -0.396136   
O45      O      0.240790000000     0.550470000000     0.226090000000    -0.455003   
O46      O      0.384570000000     0.777380000000     0.099210000000    -0.38329    
O47      O      0.373700000000     0.761970000000     0.189780000000    -0.427698   
O48      O      0.174050000000     0.514470000000     0.152020000000    -0.458698   
O49      O      0.346500000000     0.664410000000     0.126740000000    -0.401456   
O50      O      0.292940000000     0.652130000000     0.278600000000    -0.453653   
O51      O      0.234810000000     0.647100000000     0.169510000000    -0.578627   
O52      O      0.054130000000     0.460610000000     0.564180000000    -0.457467   
O53      O      0.163690000000     0.707780000000     0.630690000000    -0.377384   
O54      O      0.000760000000     0.536810000000     0.654790000000    -0.439843   
O55      O      0.265350000000     0.600030000000     0.590210000000    -0.396283   
O56      O      0.069390000000     0.600660000000     0.592730000000    -0.396074   
O57      O      0.175830000000     0.538450000000     0.543250000000    -0.456921   
O58      O      0.204470000000     0.664890000000     0.581300000000    -0.42953    
O59      O      0.994520000000     0.433040000000     0.638390000000    -0.443251   
O60      O      0.219500000000     0.499380000000     0.643500000000    -0.434803   
O61      O      0.088790000000     0.629820000000     0.702590000000    -0.39496    
O62      O      0.081780000000     0.453730000000     0.731710000000    -0.458702   
O63      O      0.301330000000     0.685620000000     0.658130000000    -0.376289   
O64      O      0.216810000000     0.665150000000     0.708120000000    -0.427837   
O65      O      0.094170000000     0.416970000000     0.656070000000    -0.468737   
O66      O      0.243070000000     0.574030000000     0.700250000000    -0.403019   
O67      O      0.084760000000     0.554870000000     0.752280000000    -0.441523   
O68      O      0.127730000000     0.544400000000     0.647070000000    -0.583685   
O69      O      0.637650000000     0.154300000000     0.204710000000    -0.468211   
O70      O      0.774490000000     0.069510000000     0.099680000000    -0.414971   
O71      O      0.795470000000     0.269740000000     0.121220000000    -0.442666   
O72      O      0.668130000000     0.045260000000     0.142890000000    -0.444187   
O73      O      0.805930000000     0.196260000000     0.084670000000    -0.425093   
O74      O      0.610220000000     0.043030000000     0.212030000000    -0.454749   
O75      O      0.741020000000     0.994180000000     0.162660000000    -0.426286   
O76      O      0.687700000000     0.165510000000     0.128030000000    -0.447357   
O77      O      0.697030000000     0.072920000000     0.306370000000    -0.449595   
O78      O      0.904940000000     0.220880000000     0.169520000000    -0.436866   
O79      O      0.746510000000     0.246010000000     0.220440000000    -0.410934   
O80      O      0.809920000000     0.069270000000     0.246410000000    -0.44248    
O81      O      0.877580000000     0.112500000000     0.181660000000    -0.426576   
O82      O      0.726820000000     0.186300000000     0.294570000000    -0.445665   
O83      O      0.686050000000     0.005620000000     0.248160000000    -0.417495   
O84      O      0.852070000000     0.254000000000     0.210920000000    -0.465031   
O85      O      0.756570000000     0.135620000000     0.208320000000    -0.63632    
O86      O      0.517490000000     0.031000000000     0.717510000000    -0.434793   
O87      O      0.720210000000     0.977520000000     0.662560000000    -0.404847   
O88      O      0.589150000000     0.034260000000     0.562740000000    -0.365747   
O89      O      0.572760000000     0.931180000000     0.788450000000    -0.476792   
O90      O      0.622180000000     0.974740000000     0.603530000000    -0.430174   
O91      O      0.557020000000     0.004100000000     0.813610000000    -0.467467   
O92      O      0.640500000000     0.920220000000     0.716690000000    -0.469485   
O93      O      0.529640000000     0.975840000000     0.656630000000    -0.396863   
O94      O      0.679910000000     0.109340000000     0.809100000000    -0.460292   
O95      O      0.747580000000     0.065350000000     0.590000000000    -0.375714   
O96      O      0.585180000000     0.099570000000     0.640930000000    -0.38728    
O97      O      0.757930000000     0.023130000000     0.759010000000    -0.442986   
O98      O      0.770920000000     0.093720000000     0.696390000000    -0.401274   
O99      O      0.642980000000     0.141830000000     0.716600000000    -0.456663   
O100     O      0.684400000000     0.027770000000     0.835210000000    -0.47547    
O101     O      0.701810000000     0.116010000000     0.617030000000    -0.423135   
O102     O      0.642290000000     0.031020000000     0.718170000000    -0.573494   
O103     O      0.708230000000     0.523590000000     0.097050000000    -0.436509   
O104     O      0.733440000000     0.753020000000     0.111550000000    -0.429109   
O105     O      0.603210000000     0.605870000000     0.143400000000    -0.459815   
O106     O      0.780280000000     0.625810000000     0.031310000000    -0.447519   
O107     O      0.657250000000     0.687680000000     0.191540000000    -0.468991   
O108     O      0.828850000000     0.592450000000     0.090810000000    -0.407601   
O109     O      0.736740000000     0.705210000000     0.037290000000    -0.433225   
O110     O      0.623220000000     0.533840000000     0.097070000000    -0.460415   
O111     O      0.845950000000     0.644230000000     0.191850000000    -0.439045   
O112     O      0.760560000000     0.685150000000     0.250790000000    -0.458457   
O113     O      0.690640000000     0.516160000000     0.197360000000    -0.467826   
O114     O      0.847790000000     0.779860000000     0.095370000000    -0.46554    
O115     O      0.844040000000     0.762080000000     0.182950000000    -0.466079   
O116     O      0.788440000000     0.527460000000     0.179170000000    -0.422255   
O117     O      0.884820000000     0.697880000000     0.113150000000    -0.427868   
O118     O      0.668490000000     0.597190000000     0.241290000000    -0.467046   
O119     O      0.743210000000     0.645800000000     0.135370000000    -0.571282   
O120     O      0.494710000000     0.423330000000     0.613190000000    -0.417969   
O121     O      0.646490000000     0.652870000000     0.659120000000    -0.447041   
O122     O      0.527480000000     0.507150000000     0.681700000000    -0.441421   
O123     O      0.644290000000     0.598090000000     0.501690000000    -0.430392   
O124     O      0.599370000000     0.573890000000     0.740360000000    -0.450115   
O125     O      0.551890000000     0.512790000000     0.523630000000    -0.410785   
O126     O      0.583590000000     0.591670000000     0.592380000000    -0.44524    
O127     O      0.510040000000     0.397290000000     0.700420000000    -0.434847   
O128     O      0.649800000000     0.482070000000     0.522900000000    -0.430065   
O129     O      0.711500000000     0.561820000000     0.745650000000    -0.444744   
O130     O      0.634350000000     0.432670000000     0.682890000000    -0.453329   
O131     O      0.720270000000     0.659120000000     0.587950000000    -0.408607   
O132     O      0.762850000000     0.641830000000     0.664880000000    -0.43882    
O133     O      0.599720000000     0.402250000000     0.599800000000    -0.433549   
O134     O      0.724260000000     0.566360000000     0.558040000000    -0.444668   
O135     O      0.611740000000     0.483550000000     0.756040000000    -0.412923   
O136     O      0.644190000000     0.535750000000     0.641290000000    -0.649405   


