data_structure

_audit_creation_method RASPA-1.0
_audit_creation_date 2023-5-19
_audit_author_name 'Poobodin Mano'

_cell_length_a    29.7109
_cell_length_b    30.2642
_cell_length_c    30.0509
_cell_angle_alpha 90
_cell_angle_beta  90
_cell_angle_gamma 90
_cell_volume      27021.1

_symmetry_cell_setting          triclinic
_symmetry_space_group_name_Hall 'P 1'
_symmetry_space_group_name_H-M  'P 1'
_symmetry_Int_Tables_number     1

_symmetry_equiv_pos_as_xyz 'x,y,z'

loop_
_atom_site_label
_atom_site_type_symbol
_atom_site_fract_x
_atom_site_fract_y
_atom_site_fract_z
_atom_site_charge
C1       C      0.442520000000     0.434040000000     0.071290000000     0.397711   
C2       C      0.106770000000     0.091420000000     0.078730000000     0.400499   
C3       C      0.103250000000     0.435180000000     0.075330000000     0.397963   
C4       C      0.445010000000     0.093360000000     0.077400000000     0.403613   
C5       C      0.452190000000     0.093640000000     0.454320000000     0.390454   
C6       C      0.099550000000     0.440400000000     0.451890000000     0.391432   
C7       C      0.444070000000     0.439040000000     0.456540000000     0.395924   
C8       C      0.106950000000     0.094800000000     0.461260000000     0.39579    
C9       C      0.352550000000     0.342670000000     0.204210000000     0.39611    
C10      C      0.196940000000     0.184990000000     0.210800000000     0.397455   
C11      C      0.354280000000     0.187810000000     0.208200000000     0.398105   
C12      C      0.193500000000     0.342530000000     0.207660000000     0.400711   
C13      C      0.195250000000     0.346450000000     0.324220000000     0.395381   
C14      C      0.357030000000     0.187730000000     0.326310000000     0.39647    
C15      C      0.351050000000     0.341970000000     0.329330000000     0.39357    
C16      C      0.200450000000     0.191660000000     0.334080000000     0.391747   
C17      C      0.133430000000     0.173910000000     0.163780000000     0.0283663  
C18      C      0.194410000000     0.124510000000     0.160210000000    -0.00473365 
C19      C      0.111700000000     0.150420000000     0.130200000000     0.0300698  
C20      C      0.173210000000     0.100780000000     0.125770000000     0.113186   
C21      C      0.199160000000     0.062310000000     0.106160000000    -0.202327   
C22      C      0.135930000000     0.180460000000     0.380030000000     0.0270559  
C23      C      0.198800000000     0.133910000000     0.387800000000    -0.0057671  
C24      C      0.112930000000     0.155740000000     0.412010000000     0.0304032  
C25      C      0.176590000000     0.109480000000     0.421020000000     0.112714   
C26      C      0.203870000000     0.074160000000     0.444560000000    -0.202185   
C27      C      0.167350000000     0.423830000000     0.121460000000     0.0265501  
C28      C      0.105160000000     0.376110000000     0.127460000000    -0.00576557 
C29      C      0.189090000000     0.400690000000     0.155260000000     0.0285002  
C30      C      0.126290000000     0.352880000000     0.162190000000     0.11621    
C31      C      0.099440000000     0.316040000000     0.183760000000    -0.206741   
C32      C      0.415740000000     0.179280000000     0.158060000000     0.0279701  
C33      C      0.359060000000     0.125120000000     0.160980000000    -0.00582468 
C34      C      0.437770000000     0.155300000000     0.125010000000     0.0310451  
C35      C      0.380840000000     0.100510000000     0.127720000000     0.114244   
C36      C      0.358810000000     0.057370000000     0.114520000000    -0.204326   
C37      C      0.415210000000     0.353410000000     0.375460000000     0.0270996  
C38      C      0.353290000000     0.401470000000     0.380860000000    -0.00588467 
C39      C      0.438080000000     0.378300000000     0.407270000000     0.0299122  
C40      C      0.375380000000     0.426240000000     0.413830000000     0.111899   
C41      C      0.348760000000     0.463600000000     0.434660000000    -0.20405    
C42      C      0.442120000000     0.158450000000     0.409720000000     0.0266964  
C43      C      0.395580000000     0.096640000000     0.398670000000    -0.007063   
C44      C      0.417930000000     0.181650000000     0.377250000000     0.0307749  
C45      C      0.372130000000     0.118810000000     0.364840000000     0.114205   
C46      C      0.338350000000     0.091770000000     0.338510000000    -0.203801   
C47      C      0.110200000000     0.376210000000     0.407130000000     0.0267615  
C48      C      0.156880000000     0.438090000000     0.396620000000    -0.00656504 
C49      C      0.134620000000     0.353030000000     0.375050000000     0.029742   
C50      C      0.180550000000     0.415810000000     0.362820000000     0.11368    
C51      C      0.214550000000     0.442630000000     0.336660000000    -0.20498    
C52      C      0.418500000000     0.356290000000     0.161280000000     0.0269649  
C53      C      0.351280000000     0.393780000000     0.144090000000    -0.00630854 
C54      C      0.440500000000     0.379070000000     0.127300000000     0.0316733  
C55      C      0.372450000000     0.414930000000     0.108060000000     0.114182   
C56      C      0.342680000000     0.438530000000     0.074870000000    -0.206164   
C57      C      0.442520000000     0.434040000000     0.571290000000     0.397753   
C58      C      0.106770000000     0.091420000000     0.578730000000     0.400531   
C59      C      0.103250000000     0.435180000000     0.575330000000     0.398009   
C60      C      0.445010000000     0.093360000000     0.577400000000     0.403643   
C61      C      0.452190000000     0.093640000000     0.954320000000     0.390407   
C62      C      0.099550000000     0.440400000000     0.951890000000     0.391428   
C63      C      0.444070000000     0.439040000000     0.956540000000     0.395892   
C64      C      0.106950000000     0.094800000000     0.961260000000     0.395743   
C65      C      0.352550000000     0.342670000000     0.704210000000     0.396114   
C66      C      0.196940000000     0.184990000000     0.710800000000     0.397459   
C67      C      0.354280000000     0.187810000000     0.708200000000     0.398107   
C68      C      0.193500000000     0.342530000000     0.707670000000     0.400763   
C69      C      0.195250000000     0.346450000000     0.824220000000     0.395384   
C70      C      0.357030000000     0.187730000000     0.826300000000     0.396522   
C71      C      0.351050000000     0.341970000000     0.829330000000     0.393576   
C72      C      0.200450000000     0.191660000000     0.834080000000     0.391753   
C73      C      0.133430000000     0.173910000000     0.663780000000     0.0283743  
C74      C      0.194410000000     0.124510000000     0.660210000000    -0.00473065 
C75      C      0.111700000000     0.150420000000     0.630200000000     0.0300843  
C76      C      0.173210000000     0.100780000000     0.625770000000     0.113201   
C77      C      0.199160000000     0.062310000000     0.606150000000    -0.202369   
C78      C      0.135930000000     0.180460000000     0.880030000000     0.027066   
C79      C      0.198800000000     0.133910000000     0.887800000000    -0.00577569 
C80      C      0.112930000000     0.155740000000     0.912010000000     0.0304225  
C81      C      0.176590000000     0.109480000000     0.921020000000     0.112777   
C82      C      0.203870000000     0.074160000000     0.944560000000    -0.202331   
C83      C      0.167350000000     0.423830000000     0.621470000000     0.0265547  
C84      C      0.105160000000     0.376110000000     0.627460000000    -0.00575009 
C85      C      0.189090000000     0.400690000000     0.655260000000     0.0285038  
C86      C      0.126290000000     0.352880000000     0.662190000000     0.116213   
C87      C      0.099440000000     0.316040000000     0.683760000000    -0.206742   
C88      C      0.415740000000     0.179280000000     0.658060000000     0.0279763  
C89      C      0.359060000000     0.125120000000     0.660980000000    -0.00581912 
C90      C      0.437770000000     0.155300000000     0.625010000000     0.0310636  
C91      C      0.380840000000     0.100510000000     0.627710000000     0.114289   
C92      C      0.358810000000     0.057370000000     0.614520000000    -0.204367   
C93      C      0.415210000000     0.353410000000     0.875460000000     0.0271109  
C94      C      0.353290000000     0.401470000000     0.880860000000    -0.00588448 
C95      C      0.438080000000     0.378300000000     0.907270000000     0.0299319  
C96      C      0.375380000000     0.426240000000     0.913830000000     0.111946   
C97      C      0.348760000000     0.463600000000     0.934660000000    -0.204115   
C98      C      0.442120000000     0.158450000000     0.909720000000     0.026706   
C99      C      0.395580000000     0.096640000000     0.898660000000    -0.00708829 
C100     C      0.417930000000     0.181650000000     0.877250000000     0.0307894  
C101     C      0.372130000000     0.118810000000     0.864840000000     0.114223   
C102     C      0.338350000000     0.091770000000     0.838500000000    -0.203866   
C103     C      0.110200000000     0.376210000000     0.907130000000     0.0267762  
C104     C      0.156880000000     0.438090000000     0.896610000000    -0.00658129 
C105     C      0.134620000000     0.353030000000     0.875050000000     0.0297561  
C106     C      0.180550000000     0.415810000000     0.862820000000     0.113684   
C107     C      0.214550000000     0.442630000000     0.836650000000    -0.204999   
C108     C      0.418500000000     0.356290000000     0.661280000000     0.0269761  
C109     C      0.351280000000     0.393780000000     0.644090000000    -0.00630828 
C110     C      0.440500000000     0.379070000000     0.627310000000     0.0316544  
C111     C      0.372450000000     0.414930000000     0.608060000000     0.114209   
C112     C      0.342680000000     0.438530000000     0.574870000000    -0.206196   
C113     C      0.442520000000     0.934040000000     0.071290000000     0.39771    
C114     C      0.106770000000     0.591420000000     0.078730000000     0.400509   
C115     C      0.103250000000     0.935180000000     0.075330000000     0.397964   
C116     C      0.445010000000     0.593350000000     0.077400000000     0.403661   
C117     C      0.452190000000     0.593640000000     0.454320000000     0.390463   
C118     C      0.099550000000     0.940400000000     0.451890000000     0.391429   
C119     C      0.444070000000     0.939040000000     0.456540000000     0.395922   
C120     C      0.106950000000     0.594800000000     0.461260000000     0.3958     
C121     C      0.352550000000     0.842670000000     0.204210000000     0.396112   
C122     C      0.196940000000     0.684990000000     0.210800000000     0.397496   
C123     C      0.354280000000     0.687810000000     0.208200000000     0.398103   
C124     C      0.193500000000     0.842530000000     0.207660000000     0.400751   
C125     C      0.195250000000     0.846450000000     0.324220000000     0.395341   
C126     C      0.357030000000     0.687730000000     0.326310000000     0.396387   
C127     C      0.351050000000     0.841970000000     0.329330000000     0.393571   
C128     C      0.200450000000     0.691660000000     0.334080000000     0.391747   
C129     C      0.133430000000     0.673910000000     0.163780000000     0.0284003  
C130     C      0.194410000000     0.624510000000     0.160210000000    -0.00479333 
C131     C      0.111700000000     0.650420000000     0.130200000000     0.0300603  
C132     C      0.173210000000     0.600780000000     0.125770000000     0.113243   
C133     C      0.199160000000     0.562310000000     0.106160000000    -0.202448   
C134     C      0.135930000000     0.680460000000     0.380030000000     0.0270567  
C135     C      0.198800000000     0.633910000000     0.387800000000    -0.00576675 
C136     C      0.112930000000     0.655740000000     0.412010000000     0.030407   
C137     C      0.176590000000     0.609480000000     0.421020000000     0.112729   
C138     C      0.203870000000     0.574160000000     0.444560000000    -0.202201   
C139     C      0.167350000000     0.923830000000     0.121460000000     0.026603   
C140     C      0.105160000000     0.876110000000     0.127460000000    -0.00575666 
C141     C      0.189090000000     0.900700000000     0.155260000000     0.0284089  
C142     C      0.126290000000     0.852870000000     0.162190000000     0.116247   
C143     C      0.099440000000     0.816040000000     0.183760000000    -0.206783   
C144     C      0.415740000000     0.679280000000     0.158060000000     0.0279689  
C145     C      0.359060000000     0.625120000000     0.160980000000    -0.00582046 
C146     C      0.437770000000     0.655300000000     0.125010000000     0.0310511  
C147     C      0.380840000000     0.600510000000     0.127720000000     0.11425    
C148     C      0.358810000000     0.557380000000     0.114520000000    -0.204197   
C149     C      0.415210000000     0.853410000000     0.375460000000     0.0270943  
C150     C      0.353290000000     0.901470000000     0.380860000000    -0.00588406 
C151     C      0.438080000000     0.878300000000     0.407270000000     0.0299304  
C152     C      0.375380000000     0.926240000000     0.413830000000     0.111916   
C153     C      0.348760000000     0.963600000000     0.434660000000    -0.204072   
C154     C      0.442120000000     0.658450000000     0.409720000000     0.0266999  
C155     C      0.395580000000     0.596640000000     0.398670000000    -0.00706552 
C156     C      0.417930000000     0.681650000000     0.377250000000     0.0307727  
C157     C      0.372130000000     0.618810000000     0.364840000000     0.114224   
C158     C      0.338350000000     0.591770000000     0.338510000000    -0.203824   
C159     C      0.110200000000     0.876210000000     0.407130000000     0.0267794  
C160     C      0.156880000000     0.938090000000     0.396620000000    -0.00659516 
C161     C      0.134620000000     0.853030000000     0.375050000000     0.0297075  
C162     C      0.180550000000     0.915810000000     0.362820000000     0.113768   
C163     C      0.214550000000     0.942630000000     0.336660000000    -0.205109   
C164     C      0.418500000000     0.856290000000     0.161280000000     0.026968   
C165     C      0.351280000000     0.893780000000     0.144090000000    -0.00630156 
C166     C      0.440500000000     0.879070000000     0.127300000000     0.0316791  
C167     C      0.372450000000     0.914930000000     0.108060000000     0.114189   
C168     C      0.342680000000     0.938530000000     0.074870000000    -0.206152   
C169     C      0.442520000000     0.934040000000     0.571290000000     0.397753   
C170     C      0.106770000000     0.591420000000     0.578730000000     0.400541   
C171     C      0.103250000000     0.935180000000     0.575330000000     0.39801    
C172     C      0.445010000000     0.593350000000     0.577400000000     0.403691   
C173     C      0.452190000000     0.593640000000     0.954320000000     0.390416   
C174     C      0.099550000000     0.940400000000     0.951890000000     0.391425   
C175     C      0.444070000000     0.939040000000     0.956540000000     0.39589    
C176     C      0.106950000000     0.594800000000     0.961260000000     0.395752   
C177     C      0.352550000000     0.842670000000     0.704210000000     0.396116   
C178     C      0.196940000000     0.684990000000     0.710800000000     0.397501   
C179     C      0.354280000000     0.687810000000     0.708200000000     0.398106   
C180     C      0.193500000000     0.842530000000     0.707670000000     0.400803   
C181     C      0.195250000000     0.846450000000     0.824220000000     0.395344   
C182     C      0.357030000000     0.687730000000     0.826300000000     0.396438   
C183     C      0.351050000000     0.841970000000     0.829330000000     0.393577   
C184     C      0.200450000000     0.691660000000     0.834080000000     0.391753   
C185     C      0.133430000000     0.673910000000     0.663780000000     0.0284083  
C186     C      0.194410000000     0.624510000000     0.660210000000    -0.00479033 
C187     C      0.111700000000     0.650420000000     0.630200000000     0.0300749  
C188     C      0.173210000000     0.600780000000     0.625770000000     0.113258   
C189     C      0.199160000000     0.562310000000     0.606150000000    -0.202491   
C190     C      0.135930000000     0.680460000000     0.880030000000     0.0270668  
C191     C      0.198800000000     0.633910000000     0.887800000000    -0.00577534 
C192     C      0.112930000000     0.655740000000     0.912010000000     0.0304263  
C193     C      0.176590000000     0.609480000000     0.921020000000     0.112792   
C194     C      0.203870000000     0.574160000000     0.944560000000    -0.202347   
C195     C      0.167350000000     0.923830000000     0.621470000000     0.0266076  
C196     C      0.105160000000     0.876110000000     0.627460000000    -0.00574118 
C197     C      0.189090000000     0.900700000000     0.655260000000     0.0284125  
C198     C      0.126290000000     0.852870000000     0.662190000000     0.11625    
C199     C      0.099440000000     0.816040000000     0.683760000000    -0.206784   
C200     C      0.415740000000     0.679280000000     0.658060000000     0.0279751  
C201     C      0.359060000000     0.625120000000     0.660980000000    -0.0058149  
C202     C      0.437770000000     0.655300000000     0.625010000000     0.0310696  
C203     C      0.380840000000     0.600510000000     0.627710000000     0.114296   
C204     C      0.358810000000     0.557380000000     0.614520000000    -0.204238   
C205     C      0.415210000000     0.853410000000     0.875460000000     0.0271056  
C206     C      0.353290000000     0.901470000000     0.880860000000    -0.00588387 
C207     C      0.438080000000     0.878300000000     0.907270000000     0.0299501  
C208     C      0.375380000000     0.926240000000     0.913830000000     0.111963   
C209     C      0.348760000000     0.963600000000     0.934660000000    -0.204137   
C210     C      0.442120000000     0.658450000000     0.909720000000     0.0267096  
C211     C      0.395580000000     0.596640000000     0.898660000000    -0.00709081 
C212     C      0.417930000000     0.681650000000     0.877250000000     0.0307872  
C213     C      0.372130000000     0.618810000000     0.864840000000     0.114242   
C214     C      0.338350000000     0.591770000000     0.838500000000    -0.20389    
C215     C      0.110200000000     0.876210000000     0.907130000000     0.0267941  
C216     C      0.156880000000     0.938090000000     0.896610000000    -0.00661141 
C217     C      0.134620000000     0.853030000000     0.875050000000     0.0297216  
C218     C      0.180550000000     0.915810000000     0.862820000000     0.113772   
C219     C      0.214550000000     0.942630000000     0.836650000000    -0.205128   
C220     C      0.418500000000     0.856290000000     0.661280000000     0.0269792  
C221     C      0.351280000000     0.893780000000     0.644090000000    -0.0063013  
C222     C      0.440500000000     0.879070000000     0.627310000000     0.0316601  
C223     C      0.372450000000     0.914930000000     0.608060000000     0.114216   
C224     C      0.342680000000     0.938530000000     0.574870000000    -0.206184   
C225     C      0.942520000000     0.434040000000     0.071290000000     0.397704   
C226     C      0.606770000000     0.091420000000     0.078730000000     0.400506   
C227     C      0.603250000000     0.435180000000     0.075330000000     0.39797    
C228     C      0.945010000000     0.093360000000     0.077400000000     0.403608   
C229     C      0.952200000000     0.093640000000     0.454320000000     0.390474   
C230     C      0.599550000000     0.440400000000     0.451890000000     0.391441   
C231     C      0.944070000000     0.439040000000     0.456540000000     0.396054   
C232     C      0.606950000000     0.094800000000     0.461260000000     0.395798   
C233     C      0.852550000000     0.342670000000     0.204210000000     0.396071   
C234     C      0.696940000000     0.184990000000     0.210800000000     0.397453   
C235     C      0.854280000000     0.187810000000     0.208200000000     0.398106   
C236     C      0.693500000000     0.342530000000     0.207660000000     0.400713   
C237     C      0.695250000000     0.346450000000     0.324220000000     0.395383   
C238     C      0.857030000000     0.187730000000     0.326310000000     0.396473   
C239     C      0.851060000000     0.341970000000     0.329330000000     0.393543   
C240     C      0.700450000000     0.191660000000     0.334080000000     0.391749   
C241     C      0.633420000000     0.173910000000     0.163780000000     0.0283057  
C242     C      0.694410000000     0.124510000000     0.160210000000    -0.00473519 
C243     C      0.611700000000     0.150420000000     0.130200000000     0.0301104  
C244     C      0.673210000000     0.100780000000     0.125770000000     0.113195   
C245     C      0.699160000000     0.062310000000     0.106160000000    -0.202331   
C246     C      0.635930000000     0.180460000000     0.380030000000     0.0270637  
C247     C      0.698800000000     0.133910000000     0.387800000000    -0.00576481 
C248     C      0.612930000000     0.155740000000     0.412010000000     0.030411   
C249     C      0.676590000000     0.109480000000     0.421020000000     0.112717   
C250     C      0.703870000000     0.074160000000     0.444560000000    -0.202186   
C251     C      0.667350000000     0.423830000000     0.121460000000     0.0265527  
C252     C      0.605160000000     0.376110000000     0.127460000000    -0.00576302 
C253     C      0.689090000000     0.400690000000     0.155260000000     0.0285029  
C254     C      0.626290000000     0.352880000000     0.162190000000     0.116226   
C255     C      0.599440000000     0.316040000000     0.183760000000    -0.206757   
C256     C      0.915740000000     0.179280000000     0.158060000000     0.0279789  
C257     C      0.859060000000     0.125120000000     0.160980000000    -0.00584711 
C258     C      0.937770000000     0.155300000000     0.125010000000     0.0310558  
C259     C      0.880840000000     0.100510000000     0.127720000000     0.11426    
C260     C      0.858810000000     0.057370000000     0.114520000000    -0.204333   
C261     C      0.915210000000     0.353410000000     0.375460000000     0.0271033  
C262     C      0.853290000000     0.401470000000     0.380860000000    -0.00587214 
C263     C      0.938080000000     0.378300000000     0.407270000000     0.0299298  
C264     C      0.875380000000     0.426240000000     0.413830000000     0.111903   
C265     C      0.848760000000     0.463600000000     0.434660000000    -0.204051   
C266     C      0.942120000000     0.158450000000     0.409720000000     0.0266965  
C267     C      0.895580000000     0.096640000000     0.398670000000    -0.00707141 
C268     C      0.917930000000     0.181650000000     0.377250000000     0.0307899  
C269     C      0.872130000000     0.118810000000     0.364840000000     0.114216   
C270     C      0.838350000000     0.091770000000     0.338510000000    -0.203805   
C271     C      0.610200000000     0.376210000000     0.407130000000     0.0267718  
C272     C      0.656880000000     0.438090000000     0.396620000000    -0.00655992 
C273     C      0.634620000000     0.353030000000     0.375050000000     0.02975    
C274     C      0.680550000000     0.415810000000     0.362820000000     0.113684   
C275     C      0.714550000000     0.442630000000     0.336660000000    -0.204982   
C276     C      0.918510000000     0.356290000000     0.161280000000     0.0269434  
C277     C      0.851270000000     0.393780000000     0.144090000000    -0.00639896 
C278     C      0.940500000000     0.379070000000     0.127300000000     0.0317038  
C279     C      0.872450000000     0.414930000000     0.108060000000     0.114229   
C280     C      0.842680000000     0.438530000000     0.074870000000    -0.206183   
C281     C      0.942520000000     0.434040000000     0.571290000000     0.397747   
C282     C      0.606770000000     0.091420000000     0.578730000000     0.400538   
C283     C      0.603250000000     0.435180000000     0.575330000000     0.398016   
C284     C      0.945010000000     0.093360000000     0.577400000000     0.403638   
C285     C      0.952200000000     0.093640000000     0.954320000000     0.390427   
C286     C      0.599550000000     0.440400000000     0.951890000000     0.391436   
C287     C      0.944070000000     0.439040000000     0.956540000000     0.396021   
C288     C      0.606950000000     0.094800000000     0.961260000000     0.39575    
C289     C      0.852550000000     0.342670000000     0.704210000000     0.396074   
C290     C      0.696940000000     0.184990000000     0.710800000000     0.397457   
C291     C      0.854280000000     0.187810000000     0.708200000000     0.398109   
C292     C      0.693500000000     0.342530000000     0.707670000000     0.400765   
C293     C      0.695250000000     0.346450000000     0.824220000000     0.395386   
C294     C      0.857030000000     0.187730000000     0.826300000000     0.396524   
C295     C      0.851060000000     0.341970000000     0.829330000000     0.393549   
C296     C      0.700450000000     0.191660000000     0.834080000000     0.391755   
C297     C      0.633420000000     0.173910000000     0.663780000000     0.0283137  
C298     C      0.694410000000     0.124510000000     0.660210000000    -0.0047322  
C299     C      0.611700000000     0.150420000000     0.630200000000     0.0301249  
C300     C      0.673210000000     0.100780000000     0.625770000000     0.11321    
C301     C      0.699160000000     0.062310000000     0.606150000000    -0.202373   
C302     C      0.635930000000     0.180460000000     0.880030000000     0.0270738  
C303     C      0.698800000000     0.133910000000     0.887800000000    -0.0057734  
C304     C      0.612930000000     0.155740000000     0.912010000000     0.0304303  
C305     C      0.676590000000     0.109480000000     0.921020000000     0.11278    
C306     C      0.703870000000     0.074160000000     0.944560000000    -0.202332   
C307     C      0.667350000000     0.423830000000     0.621470000000     0.0265573  
C308     C      0.605160000000     0.376110000000     0.627460000000    -0.00574754 
C309     C      0.689090000000     0.400690000000     0.655260000000     0.0285065  
C310     C      0.626290000000     0.352880000000     0.662190000000     0.116229   
C311     C      0.599440000000     0.316040000000     0.683760000000    -0.206757   
C312     C      0.915740000000     0.179280000000     0.658060000000     0.0279851  
C313     C      0.859060000000     0.125120000000     0.660980000000    -0.00584155 
C314     C      0.937770000000     0.155300000000     0.625010000000     0.0310743  
C315     C      0.880840000000     0.100510000000     0.627710000000     0.114305   
C316     C      0.858810000000     0.057370000000     0.614520000000    -0.204374   
C317     C      0.915210000000     0.353410000000     0.875460000000     0.0271145  
C318     C      0.853290000000     0.401470000000     0.880860000000    -0.00587194 
C319     C      0.938080000000     0.378300000000     0.907270000000     0.0299496  
C320     C      0.875380000000     0.426240000000     0.913830000000     0.111949   
C321     C      0.848760000000     0.463600000000     0.934660000000    -0.204116   
C322     C      0.942120000000     0.158450000000     0.909720000000     0.0267061  
C323     C      0.895580000000     0.096640000000     0.898660000000    -0.00709671 
C324     C      0.917930000000     0.181650000000     0.877250000000     0.0308044  
C325     C      0.872130000000     0.118810000000     0.864840000000     0.114234   
C326     C      0.838350000000     0.091770000000     0.838500000000    -0.203871   
C327     C      0.610200000000     0.376210000000     0.907130000000     0.0267865  
C328     C      0.656880000000     0.438090000000     0.896610000000    -0.00657617 
C329     C      0.634620000000     0.353030000000     0.875050000000     0.0297641  
C330     C      0.680550000000     0.415810000000     0.862820000000     0.113689   
C331     C      0.714550000000     0.442630000000     0.836650000000    -0.205      
C332     C      0.918510000000     0.356290000000     0.661280000000     0.0269546  
C333     C      0.851270000000     0.393780000000     0.644090000000    -0.00639869 
C334     C      0.940500000000     0.379070000000     0.627310000000     0.0316849  
C335     C      0.872450000000     0.414930000000     0.608060000000     0.114255   
C336     C      0.842680000000     0.438530000000     0.574870000000    -0.206215   
C337     C      0.942520000000     0.934040000000     0.071290000000     0.397704   
C338     C      0.606770000000     0.591420000000     0.078730000000     0.400517   
C339     C      0.603250000000     0.935180000000     0.075330000000     0.397971   
C340     C      0.945010000000     0.593350000000     0.077400000000     0.403657   
C341     C      0.952200000000     0.593640000000     0.454320000000     0.390483   
C342     C      0.599550000000     0.940400000000     0.451890000000     0.391437   
C343     C      0.944070000000     0.939040000000     0.456540000000     0.396052   
C344     C      0.606950000000     0.594800000000     0.461260000000     0.395807   
C345     C      0.852550000000     0.842670000000     0.204210000000     0.396072   
C346     C      0.696940000000     0.684990000000     0.210800000000     0.397495   
C347     C      0.854280000000     0.687810000000     0.208200000000     0.398104   
C348     C      0.693500000000     0.842530000000     0.207660000000     0.400752   
C349     C      0.695250000000     0.846450000000     0.324220000000     0.395343   
C350     C      0.857030000000     0.687730000000     0.326310000000     0.396389   
C351     C      0.851060000000     0.841970000000     0.329330000000     0.393544   
C352     C      0.700450000000     0.691660000000     0.334080000000     0.391749   
C353     C      0.633420000000     0.673910000000     0.163780000000     0.0283397  
C354     C      0.694410000000     0.624510000000     0.160210000000    -0.00479486 
C355     C      0.611700000000     0.650420000000     0.130200000000     0.030101   
C356     C      0.673210000000     0.600780000000     0.125770000000     0.113251   
C357     C      0.699160000000     0.562310000000     0.106160000000    -0.202452   
C358     C      0.635930000000     0.680460000000     0.380030000000     0.0270645  
C359     C      0.698800000000     0.633910000000     0.387800000000    -0.00576447 
C360     C      0.612930000000     0.655740000000     0.412010000000     0.0304147  
C361     C      0.676590000000     0.609480000000     0.421020000000     0.112732   
C362     C      0.703870000000     0.574160000000     0.444560000000    -0.202202   
C363     C      0.667350000000     0.923830000000     0.121460000000     0.0266057  
C364     C      0.605160000000     0.876110000000     0.127460000000    -0.00575411 
C365     C      0.689090000000     0.900700000000     0.155260000000     0.0284116  
C366     C      0.626290000000     0.852870000000     0.162190000000     0.116263   
C367     C      0.599440000000     0.816040000000     0.183760000000    -0.206799   
C368     C      0.915740000000     0.679280000000     0.158060000000     0.0279777  
C369     C      0.859060000000     0.625120000000     0.160980000000    -0.00584289 
C370     C      0.937770000000     0.655300000000     0.125010000000     0.0310618  
C371     C      0.880840000000     0.600510000000     0.127720000000     0.114266   
C372     C      0.858810000000     0.557380000000     0.114520000000    -0.204204   
C373     C      0.915210000000     0.853410000000     0.375460000000     0.0270979  
C374     C      0.853290000000     0.901470000000     0.380860000000    -0.00587153 
C375     C      0.938080000000     0.878300000000     0.407270000000     0.029948   
C376     C      0.875380000000     0.926240000000     0.413830000000     0.111919   
C377     C      0.848760000000     0.963600000000     0.434660000000    -0.204073   
C378     C      0.942120000000     0.658450000000     0.409720000000     0.0267     
C379     C      0.895580000000     0.596640000000     0.398670000000    -0.00707393 
C380     C      0.917930000000     0.681650000000     0.377250000000     0.0307877  
C381     C      0.872130000000     0.618810000000     0.364840000000     0.114235   
C382     C      0.838350000000     0.591770000000     0.338510000000    -0.203828   
C383     C      0.610200000000     0.876210000000     0.407130000000     0.0267896  
C384     C      0.656880000000     0.938090000000     0.396620000000    -0.00659005 
C385     C      0.634620000000     0.853030000000     0.375050000000     0.0297156  
C386     C      0.680550000000     0.915810000000     0.362820000000     0.113772   
C387     C      0.714550000000     0.942630000000     0.336660000000    -0.205111   
C388     C      0.918510000000     0.856290000000     0.161280000000     0.0269465  
C389     C      0.851270000000     0.893780000000     0.144090000000    -0.00639198 
C390     C      0.940500000000     0.879070000000     0.127300000000     0.0317096  
C391     C      0.872450000000     0.914930000000     0.108060000000     0.114235   
C392     C      0.842680000000     0.938530000000     0.074870000000    -0.20617    
C393     C      0.942520000000     0.934040000000     0.571290000000     0.397746   
C394     C      0.606770000000     0.591420000000     0.578730000000     0.400549   
C395     C      0.603250000000     0.935180000000     0.575330000000     0.398017   
C396     C      0.945010000000     0.593350000000     0.577400000000     0.403687   
C397     C      0.952200000000     0.593640000000     0.954320000000     0.390436   
C398     C      0.599550000000     0.940400000000     0.951890000000     0.391433   
C399     C      0.944070000000     0.939040000000     0.956540000000     0.39602    
C400     C      0.606950000000     0.594800000000     0.961260000000     0.39576    
C401     C      0.852550000000     0.842670000000     0.704210000000     0.396076   
C402     C      0.696940000000     0.684990000000     0.710800000000     0.397499   
C403     C      0.854280000000     0.687810000000     0.708200000000     0.398107   
C404     C      0.693500000000     0.842530000000     0.707670000000     0.400804   
C405     C      0.695250000000     0.846450000000     0.824220000000     0.395346   
C406     C      0.857030000000     0.687730000000     0.826300000000     0.396441   
C407     C      0.851060000000     0.841970000000     0.829330000000     0.39355    
C408     C      0.700450000000     0.691660000000     0.834080000000     0.391755   
C409     C      0.633420000000     0.673910000000     0.663780000000     0.0283477  
C410     C      0.694410000000     0.624510000000     0.660210000000    -0.00479187 
C411     C      0.611700000000     0.650420000000     0.630200000000     0.0301155  
C412     C      0.673210000000     0.600780000000     0.625770000000     0.113266   
C413     C      0.699160000000     0.562310000000     0.606150000000    -0.202494   
C414     C      0.635930000000     0.680460000000     0.880030000000     0.0270746  
C415     C      0.698800000000     0.633910000000     0.887800000000    -0.00577306 
C416     C      0.612930000000     0.655740000000     0.912010000000     0.030434   
C417     C      0.676590000000     0.609480000000     0.921020000000     0.112795   
C418     C      0.703870000000     0.574160000000     0.944560000000    -0.202348   
C419     C      0.667350000000     0.923830000000     0.621470000000     0.0266103  
C420     C      0.605160000000     0.876110000000     0.627460000000    -0.00573863 
C421     C      0.689090000000     0.900700000000     0.655260000000     0.0284152  
C422     C      0.626290000000     0.852870000000     0.662190000000     0.116266   
C423     C      0.599440000000     0.816040000000     0.683760000000    -0.206799   
C424     C      0.915740000000     0.679280000000     0.658060000000     0.0279839  
C425     C      0.859060000000     0.625120000000     0.660980000000    -0.00583733 
C426     C      0.937770000000     0.655300000000     0.625010000000     0.0310803  
C427     C      0.880840000000     0.600510000000     0.627710000000     0.114311   
C428     C      0.858810000000     0.557380000000     0.614520000000    -0.204245   
C429     C      0.915210000000     0.853410000000     0.875460000000     0.0271092  
C430     C      0.853290000000     0.901470000000     0.880860000000    -0.00587134 
C431     C      0.938080000000     0.878300000000     0.907270000000     0.0299678  
C432     C      0.875380000000     0.926240000000     0.913830000000     0.111966   
C433     C      0.848760000000     0.963600000000     0.934660000000    -0.204139   
C434     C      0.942120000000     0.658450000000     0.909720000000     0.0267096  
C435     C      0.895580000000     0.596640000000     0.898660000000    -0.00709923 
C436     C      0.917930000000     0.681650000000     0.877250000000     0.0308021  
C437     C      0.872130000000     0.618810000000     0.864840000000     0.114254   
C438     C      0.838350000000     0.591770000000     0.838500000000    -0.203894   
C439     C      0.610200000000     0.876210000000     0.907130000000     0.0268044  
C440     C      0.656880000000     0.938090000000     0.896610000000    -0.00660629 
C441     C      0.634620000000     0.853030000000     0.875050000000     0.0297297  
C442     C      0.680550000000     0.915810000000     0.862820000000     0.113777   
C443     C      0.714550000000     0.942630000000     0.836650000000    -0.205129   
C444     C      0.918510000000     0.856290000000     0.661280000000     0.0269577  
C445     C      0.851270000000     0.893780000000     0.644090000000    -0.00639172 
C446     C      0.940500000000     0.879070000000     0.627310000000     0.0316906  
C447     C      0.872450000000     0.914930000000     0.608060000000     0.114262   
C448     C      0.842680000000     0.938530000000     0.574870000000    -0.206202   
Co1      Co     0.458830000000     0.015920000000     0.016840000000     0.835635   
Co2      Co     0.091600000000     0.514650000000     0.517530000000     0.838097   
Co3      Co     0.524100000000     0.450150000000     0.016340000000     0.840842   
Co4      Co     0.526220000000     0.081450000000     0.519750000000     0.843717   
Co5      Co     0.274390000000     0.330790000000     0.265260000000     0.851119   
Co6      Co     0.276170000000     0.201160000000     0.269260000000     0.852607   
Co7      Co     0.342740000000     0.266380000000     0.266730000000     0.834759   
Co8      Co     0.208370000000     0.265160000000     0.268130000000     0.829213   
Co9      Co     0.458830000000     0.015920000000     0.516840000000     0.836058   
Co10     Co     0.091600000000     0.514650000000     0.017530000000     0.83762    
Co11     Co     0.524100000000     0.450150000000     0.516340000000     0.841265   
Co12     Co     0.526220000000     0.081450000000     0.019760000000     0.843321   
Co13     Co     0.274390000000     0.330790000000     0.765260000000     0.851122   
Co14     Co     0.276170000000     0.201160000000     0.769260000000     0.85261    
Co15     Co     0.342740000000     0.266380000000     0.766730000000     0.834764   
Co16     Co     0.208370000000     0.265160000000     0.768130000000     0.82922    
Co17     Co     0.458830000000     0.515920000000     0.016840000000     0.835845   
Co18     Co     0.091600000000     0.014650000000     0.517530000000     0.837898   
Co19     Co     0.524100000000     0.950150000000     0.016340000000     0.841072   
Co20     Co     0.526220000000     0.581450000000     0.519750000000     0.843777   
Co21     Co     0.274390000000     0.830790000000     0.265260000000     0.851119   
Co22     Co     0.276170000000     0.701160000000     0.269260000000     0.852562   
Co23     Co     0.342740000000     0.766380000000     0.266730000000     0.834748   
Co24     Co     0.208370000000     0.765160000000     0.268130000000     0.829215   
Co25     Co     0.458830000000     0.515920000000     0.516840000000     0.836268   
Co26     Co     0.091600000000     0.014650000000     0.017530000000     0.837422   
Co27     Co     0.524100000000     0.950150000000     0.516340000000     0.841494   
Co28     Co     0.526220000000     0.581450000000     0.019760000000     0.843382   
Co29     Co     0.274390000000     0.830790000000     0.765260000000     0.851122   
Co30     Co     0.276170000000     0.701160000000     0.769260000000     0.852565   
Co31     Co     0.342740000000     0.766380000000     0.766730000000     0.834753   
Co32     Co     0.208370000000     0.765160000000     0.768130000000     0.829221   
Co33     Co     0.958830000000     0.015920000000     0.016840000000     0.83581    
Co34     Co     0.591600000000     0.514650000000     0.517530000000     0.838071   
Co35     Co     0.024100000000     0.450150000000     0.016340000000     0.840576   
Co36     Co     0.026220000000     0.081450000000     0.519750000000     0.843478   
Co37     Co     0.774390000000     0.330790000000     0.265260000000     0.851105   
Co38     Co     0.776170000000     0.201160000000     0.269260000000     0.852605   
Co39     Co     0.842740000000     0.266380000000     0.266730000000     0.834768   
Co40     Co     0.708370000000     0.265160000000     0.268130000000     0.829216   
Co41     Co     0.958830000000     0.015920000000     0.516840000000     0.836233   
Co42     Co     0.591600000000     0.514650000000     0.017530000000     0.837594   
Co43     Co     0.024100000000     0.450150000000     0.516340000000     0.840999   
Co44     Co     0.026220000000     0.081450000000     0.019760000000     0.843083   
Co45     Co     0.774390000000     0.330790000000     0.765260000000     0.851108   
Co46     Co     0.776170000000     0.201160000000     0.769260000000     0.852608   
Co47     Co     0.842740000000     0.266380000000     0.766730000000     0.834773   
Co48     Co     0.708370000000     0.265160000000     0.768130000000     0.829222   
Co49     Co     0.958830000000     0.515920000000     0.016840000000     0.836021   
Co50     Co     0.591600000000     0.014650000000     0.517530000000     0.837873   
Co51     Co     0.024100000000     0.950150000000     0.016340000000     0.840806   
Co52     Co     0.026220000000     0.581450000000     0.519750000000     0.843538   
Co53     Co     0.774390000000     0.830790000000     0.265260000000     0.851105   
Co54     Co     0.776170000000     0.701160000000     0.269260000000     0.85256    
Co55     Co     0.842740000000     0.766380000000     0.266730000000     0.834757   
Co56     Co     0.708370000000     0.765160000000     0.268130000000     0.829218   
Co57     Co     0.958830000000     0.515920000000     0.516840000000     0.836444   
Co58     Co     0.591600000000     0.014650000000     0.017530000000     0.837396   
Co59     Co     0.024100000000     0.950150000000     0.516340000000     0.841228   
Co60     Co     0.026220000000     0.581450000000     0.019760000000     0.843143   
Co61     Co     0.774390000000     0.830790000000     0.765260000000     0.851108   
Co62     Co     0.776170000000     0.701160000000     0.769260000000     0.852563   
Co63     Co     0.842740000000     0.766380000000     0.766730000000     0.834762   
Co64     Co     0.708370000000     0.765160000000     0.768130000000     0.829224   
H1       H      0.078740000000     0.162310000000     0.120300000000     0.0438304  
H2       H      0.116340000000     0.202400000000     0.177630000000     0.0380935  
H3       H      0.227400000000     0.113700000000     0.171270000000     0.0492506  
H4       H      0.202820000000     0.066470000000     0.069630000000     0.0855279  
H5       H      0.233840000000     0.059770000000     0.119770000000     0.0655218  
H6       H      0.181840000000     0.030850000000     0.114180000000     0.0919623  
H7       H      0.078740000000     0.165760000000     0.419630000000     0.0443971  
H8       H      0.118560000000     0.208240000000     0.365030000000     0.0434979  
H9       H      0.233020000000     0.124820000000     0.379290000000     0.0456704  
H10      H      0.192410000000     0.040880000000     0.434120000000     0.0883381  
H11      H      0.240340000000     0.076440000000     0.436660000000     0.0663096  
H12      H      0.201040000000     0.078060000000     0.481200000000     0.0864839  
H13      H      0.222590000000     0.411840000000     0.164180000000     0.0390904  
H14      H      0.184980000000     0.451370000000     0.106390000000     0.0336825  
H15      H      0.071670000000     0.365900000000     0.117330000000     0.0521255  
H16      H      0.097640000000     0.321090000000     0.220310000000     0.0943463  
H17      H      0.064080000000     0.314940000000     0.171760000000     0.0734922  
H18      H      0.114810000000     0.283610000000     0.175710000000     0.095802   
H19      H      0.468820000000     0.169220000000     0.112230000000     0.0439048  
H20      H      0.430760000000     0.210140000000     0.168830000000     0.0440446  
H21      H      0.327850000000     0.112380000000     0.174700000000     0.0486592  
H22      H      0.381740000000     0.029490000000     0.122390000000     0.0917833  
H23      H      0.327020000000     0.051030000000     0.132920000000     0.0655402  
H24      H      0.349830000000     0.057940000000     0.078660000000     0.0862194  
H25      H      0.471800000000     0.367520000000     0.415840000000     0.0447399  
H26      H      0.432250000000     0.324920000000     0.361500000000     0.0440663  
H27      H      0.319600000000     0.411170000000     0.371250000000     0.0449102  
H28      H      0.363340000000     0.495650000000     0.424680000000     0.0883623  
H29      H      0.312970000000     0.463780000000     0.423900000000     0.0653698  
H30      H      0.348350000000     0.460430000000     0.471340000000     0.0855909  
H31      H      0.427840000000     0.215530000000     0.370730000000     0.0429227  
H32      H      0.469670000000     0.175270000000     0.426240000000     0.0440382  
H33      H      0.386450000000     0.062830000000     0.405750000000     0.0440255  
H34      H      0.343270000000     0.096900000000     0.302240000000     0.091764   
H35      H      0.342400000000     0.055710000000     0.344280000000     0.0677649  
H36      H      0.303580000000     0.100640000000     0.348480000000     0.089567   
H37      H      0.124530000000     0.319190000000     0.368620000000     0.0431825  
H38      H      0.082540000000     0.359270000000     0.423360000000     0.0442932  
H39      H      0.165960000000     0.471990000000     0.404000000000     0.0446528  
H40      H      0.209010000000     0.438310000000     0.300370000000     0.0920339  
H41      H      0.211470000000     0.478640000000     0.343300000000     0.0685231  
H42      H      0.249170000000     0.432750000000     0.345920000000     0.0895009  
H43      H      0.476170000000     0.372680000000     0.123060000000     0.0411678  
H44      H      0.437930000000     0.333030000000     0.180920000000     0.041971   
H45      H      0.315530000000     0.399300000000     0.149130000000     0.0492006  
H46      H      0.351970000000     0.428200000000     0.040710000000     0.0839979  
H47      H      0.306580000000     0.429980000000     0.079350000000     0.0694074  
H48      H      0.345860000000     0.474710000000     0.078300000000     0.0832997  
H49      H      0.078740000000     0.162310000000     0.620300000000     0.0438468  
H50      H      0.116340000000     0.202400000000     0.677630000000     0.0380982  
H51      H      0.227400000000     0.113700000000     0.671270000000     0.0492532  
H52      H      0.202820000000     0.066470000000     0.569630000000     0.0856539  
H53      H      0.233840000000     0.059770000000     0.619770000000     0.0655351  
H54      H      0.181840000000     0.030850000000     0.614180000000     0.0919691  
H55      H      0.078740000000     0.165760000000     0.919630000000     0.0444171  
H56      H      0.118560000000     0.208240000000     0.865030000000     0.0435055  
H57      H      0.233020000000     0.124820000000     0.879290000000     0.0456844  
H58      H      0.192410000000     0.040880000000     0.934120000000     0.0883929  
H59      H      0.240340000000     0.076440000000     0.936660000000     0.0663813  
H60      H      0.201040000000     0.078060000000     0.981190000000     0.0866523  
H61      H      0.222590000000     0.411840000000     0.664180000000     0.0390971  
H62      H      0.184980000000     0.451370000000     0.606390000000     0.03371    
H63      H      0.071670000000     0.365900000000     0.617330000000     0.0521417  
H64      H      0.097640000000     0.321090000000     0.720310000000     0.0943411  
H65      H      0.064080000000     0.314940000000     0.671760000000     0.0735006  
H66      H      0.114810000000     0.283610000000     0.675710000000     0.095818   
H67      H      0.468820000000     0.169220000000     0.612230000000     0.0439267  
H68      H      0.430760000000     0.210140000000     0.668830000000     0.044053   
H69      H      0.327850000000     0.112380000000     0.674690000000     0.0486575  
H70      H      0.381740000000     0.029490000000     0.622390000000     0.0917863  
H71      H      0.327020000000     0.051030000000     0.632920000000     0.0655567  
H72      H      0.349830000000     0.057940000000     0.578660000000     0.0862797  
H73      H      0.471800000000     0.367520000000     0.915840000000     0.0447611  
H74      H      0.432250000000     0.324920000000     0.861500000000     0.0440743  
H75      H      0.319600000000     0.411170000000     0.871240000000     0.0449246  
H76      H      0.363340000000     0.495650000000     0.924680000000     0.0883934  
H77      H      0.312970000000     0.463780000000     0.923910000000     0.0654262  
H78      H      0.348350000000     0.460430000000     0.971340000000     0.0857081  
H79      H      0.427840000000     0.215530000000     0.870730000000     0.0429373  
H80      H      0.469670000000     0.175270000000     0.926230000000     0.0440689  
H81      H      0.386450000000     0.062830000000     0.905750000000     0.0440471  
H82      H      0.343270000000     0.096900000000     0.802240000000     0.0918059  
H83      H      0.342400000000     0.055710000000     0.844280000000     0.0677737  
H84      H      0.303580000000     0.100640000000     0.848470000000     0.0895912  
H85      H      0.124530000000     0.319190000000     0.868620000000     0.0431935  
H86      H      0.082540000000     0.359270000000     0.923360000000     0.044326   
H87      H      0.165960000000     0.471990000000     0.904000000000     0.044674   
H88      H      0.209010000000     0.438310000000     0.800370000000     0.0920719  
H89      H      0.211470000000     0.478640000000     0.843310000000     0.0685144  
H90      H      0.249170000000     0.432750000000     0.845920000000     0.0895005  
H91      H      0.476170000000     0.372680000000     0.623060000000     0.0411895  
H92      H      0.437930000000     0.333030000000     0.680910000000     0.0419688  
H93      H      0.315530000000     0.399300000000     0.649130000000     0.0492096  
H94      H      0.351970000000     0.428200000000     0.540710000000     0.084115   
H95      H      0.306580000000     0.429980000000     0.579350000000     0.0694614  
H96      H      0.345860000000     0.474710000000     0.578310000000     0.0833358  
H97      H      0.078740000000     0.662310000000     0.120300000000     0.0438335  
H98      H      0.116340000000     0.702400000000     0.177630000000     0.0380871  
H99      H      0.227400000000     0.613710000000     0.171270000000     0.0492828  
H100     H      0.202820000000     0.566470000000     0.069630000000     0.0855679  
H101     H      0.233840000000     0.559770000000     0.119770000000     0.0655693  
H102     H      0.181840000000     0.530860000000     0.114180000000     0.0920574  
H103     H      0.078740000000     0.665760000000     0.419630000000     0.0443976  
H104     H      0.118560000000     0.708240000000     0.365030000000     0.0434982  
H105     H      0.233020000000     0.624820000000     0.379290000000     0.0456779  
H106     H      0.192410000000     0.540880000000     0.434120000000     0.0883834  
H107     H      0.240340000000     0.576440000000     0.436660000000     0.0663311  
H108     H      0.201040000000     0.578060000000     0.481200000000     0.0864964  
H109     H      0.222590000000     0.911840000000     0.164180000000     0.0391319  
H110     H      0.184980000000     0.951370000000     0.106390000000     0.0336997  
H111     H      0.071670000000     0.865900000000     0.117330000000     0.0521244  
H112     H      0.097640000000     0.821090000000     0.220310000000     0.09436    
H113     H      0.064080000000     0.814940000000     0.171760000000     0.0735025  
H114     H      0.114810000000     0.783610000000     0.175710000000     0.0958106  
H115     H      0.468820000000     0.669220000000     0.112230000000     0.0439058  
H116     H      0.430760000000     0.710140000000     0.168830000000     0.0440451  
H117     H      0.327850000000     0.612380000000     0.174700000000     0.0486661  
H118     H      0.381740000000     0.529480000000     0.122390000000     0.091737   
H119     H      0.327020000000     0.551030000000     0.132920000000     0.0655265  
H120     H      0.349830000000     0.557940000000     0.078660000000     0.0862129  
H121     H      0.471800000000     0.867510000000     0.415840000000     0.0447323  
H122     H      0.432250000000     0.824920000000     0.361500000000     0.0440682  
H123     H      0.319600000000     0.911170000000     0.371250000000     0.0449161  
H124     H      0.363340000000     0.995650000000     0.424680000000     0.0884148  
H125     H      0.312970000000     0.963780000000     0.423900000000     0.0653971  
H126     H      0.348350000000     0.960430000000     0.471340000000     0.0856135  
H127     H      0.427840000000     0.715530000000     0.370730000000     0.0429238  
H128     H      0.469670000000     0.675270000000     0.426240000000     0.0440374  
H129     H      0.386450000000     0.562830000000     0.405750000000     0.0440573  
H130     H      0.343270000000     0.596900000000     0.302240000000     0.0917889  
H131     H      0.342400000000     0.555710000000     0.344280000000     0.0677994  
H132     H      0.303580000000     0.600630000000     0.348480000000     0.0895874  
H133     H      0.124530000000     0.819190000000     0.368620000000     0.0431894  
H134     H      0.082540000000     0.859270000000     0.423360000000     0.044289   
H135     H      0.165960000000     0.971990000000     0.404000000000     0.0446909  
H136     H      0.209010000000     0.938310000000     0.300370000000     0.0920793  
H137     H      0.211470000000     0.978630000000     0.343300000000     0.0686178  
H138     H      0.249170000000     0.932750000000     0.345920000000     0.0895394  
H139     H      0.476170000000     0.872680000000     0.123060000000     0.0411706  
H140     H      0.437930000000     0.833030000000     0.180920000000     0.0419726  
H141     H      0.315530000000     0.899300000000     0.149130000000     0.0492078  
H142     H      0.351970000000     0.928190000000     0.040710000000     0.0839894  
H143     H      0.306580000000     0.929980000000     0.079350000000     0.069418   
H144     H      0.345860000000     0.974710000000     0.078300000000     0.0833433  
H145     H      0.078740000000     0.662310000000     0.620300000000     0.04385    
H146     H      0.116340000000     0.702400000000     0.677630000000     0.0380918  
H147     H      0.227400000000     0.613710000000     0.671270000000     0.0492855  
H148     H      0.202820000000     0.566470000000     0.569630000000     0.085694   
H149     H      0.233840000000     0.559770000000     0.619770000000     0.0655826  
H150     H      0.181840000000     0.530860000000     0.614180000000     0.0920642  
H151     H      0.078740000000     0.665760000000     0.919630000000     0.0444176  
H152     H      0.118560000000     0.708240000000     0.865030000000     0.0435058  
H153     H      0.233020000000     0.624820000000     0.879290000000     0.0456918  
H154     H      0.192410000000     0.540880000000     0.934120000000     0.0884382  
H155     H      0.240340000000     0.576440000000     0.936660000000     0.0664029  
H156     H      0.201040000000     0.578060000000     0.981190000000     0.0866647  
H157     H      0.222590000000     0.911840000000     0.664180000000     0.0391386  
H158     H      0.184980000000     0.951370000000     0.606390000000     0.0337273  
H159     H      0.071670000000     0.865900000000     0.617330000000     0.0521407  
H160     H      0.097640000000     0.821090000000     0.720310000000     0.0943548  
H161     H      0.064080000000     0.814940000000     0.671760000000     0.0735109  
H162     H      0.114810000000     0.783610000000     0.675710000000     0.0958265  
H163     H      0.468820000000     0.669220000000     0.612230000000     0.0439277  
H164     H      0.430760000000     0.710140000000     0.668830000000     0.0440535  
H165     H      0.327850000000     0.612380000000     0.674690000000     0.0486643  
H166     H      0.381740000000     0.529480000000     0.622390000000     0.09174    
H167     H      0.327020000000     0.551030000000     0.632920000000     0.0655431  
H168     H      0.349830000000     0.557940000000     0.578660000000     0.0862733  
H169     H      0.471800000000     0.867510000000     0.915840000000     0.0447534  
H170     H      0.432250000000     0.824920000000     0.861500000000     0.0440762  
H171     H      0.319600000000     0.911170000000     0.871240000000     0.0449305  
H172     H      0.363340000000     0.995650000000     0.924680000000     0.0884459  
H173     H      0.312970000000     0.963780000000     0.923910000000     0.0654534  
H174     H      0.348350000000     0.960430000000     0.971340000000     0.0857307  
H175     H      0.427840000000     0.715530000000     0.870730000000     0.0429385  
H176     H      0.469670000000     0.675270000000     0.926230000000     0.0440681  
H177     H      0.386450000000     0.562830000000     0.905750000000     0.044079   
H178     H      0.343270000000     0.596900000000     0.802240000000     0.0918308  
H179     H      0.342400000000     0.555710000000     0.844280000000     0.0678082  
H180     H      0.303580000000     0.600630000000     0.848470000000     0.0896116  
H181     H      0.124530000000     0.819190000000     0.868620000000     0.0432003  
H182     H      0.082540000000     0.859270000000     0.923360000000     0.0443218  
H183     H      0.165960000000     0.971990000000     0.904000000000     0.0447121  
H184     H      0.209010000000     0.938310000000     0.800370000000     0.0921173  
H185     H      0.211470000000     0.978630000000     0.843310000000     0.068609   
H186     H      0.249170000000     0.932750000000     0.845920000000     0.089539   
H187     H      0.476170000000     0.872680000000     0.623060000000     0.0411923  
H188     H      0.437930000000     0.833030000000     0.680910000000     0.0419704  
H189     H      0.315530000000     0.899300000000     0.649130000000     0.0492167  
H190     H      0.351970000000     0.928190000000     0.540710000000     0.0841064  
H191     H      0.306580000000     0.929980000000     0.579350000000     0.069472   
H192     H      0.345860000000     0.974710000000     0.578310000000     0.0833794  
H193     H      0.578740000000     0.162310000000     0.120300000000     0.0438525  
H194     H      0.616340000000     0.202400000000     0.177630000000     0.0381287  
H195     H      0.727400000000     0.113700000000     0.171270000000     0.0492526  
H196     H      0.702820000000     0.066470000000     0.069630000000     0.0855276  
H197     H      0.733840000000     0.059770000000     0.119770000000     0.0655227  
H198     H      0.681840000000     0.030850000000     0.114180000000     0.0919662  
H199     H      0.578740000000     0.165760000000     0.419630000000     0.0444295  
H200     H      0.618560000000     0.208240000000     0.365030000000     0.043514   
H201     H      0.733020000000     0.124820000000     0.379290000000     0.0456702  
H202     H      0.692410000000     0.040880000000     0.434120000000     0.0883396  
H203     H      0.740340000000     0.076440000000     0.436660000000     0.0663091  
H204     H      0.701040000000     0.078060000000     0.481200000000     0.086483   
H205     H      0.722590000000     0.411840000000     0.164180000000     0.0390898  
H206     H      0.684980000000     0.451370000000     0.106390000000     0.0336823  
H207     H      0.571670000000     0.365900000000     0.117330000000     0.0521572  
H208     H      0.597640000000     0.321090000000     0.220310000000     0.0943703  
H209     H      0.564080000000     0.314940000000     0.171760000000     0.0735325  
H210     H      0.614810000000     0.283610000000     0.175710000000     0.0958155  
H211     H      0.968820000000     0.169220000000     0.112230000000     0.0439377  
H212     H      0.930760000000     0.210140000000     0.168830000000     0.0440632  
H213     H      0.827860000000     0.112380000000     0.174700000000     0.04867    
H214     H      0.881740000000     0.029490000000     0.122390000000     0.0917922  
H215     H      0.827020000000     0.051030000000     0.132920000000     0.0655429  
H216     H      0.849830000000     0.057940000000     0.078660000000     0.0862193  
H217     H      0.971800000000     0.367520000000     0.415840000000     0.0447723  
H218     H      0.932250000000     0.324920000000     0.361500000000     0.0440834  
H219     H      0.819600000000     0.411170000000     0.371250000000     0.0449073  
H220     H      0.863340000000     0.495650000000     0.424680000000     0.0883636  
H221     H      0.812970000000     0.463780000000     0.423900000000     0.0653692  
H222     H      0.848350000000     0.460430000000     0.471340000000     0.085589   
H223     H      0.927840000000     0.215530000000     0.370730000000     0.0429368  
H224     H      0.969670000000     0.175270000000     0.426240000000     0.0440731  
H225     H      0.886460000000     0.062830000000     0.405750000000     0.0440409  
H226     H      0.843270000000     0.096900000000     0.302240000000     0.0917702  
H227     H      0.842400000000     0.055710000000     0.344280000000     0.0677699  
H228     H      0.803580000000     0.100640000000     0.348480000000     0.0895679  
H229     H      0.624530000000     0.319190000000     0.368620000000     0.0431953  
H230     H      0.582540000000     0.359270000000     0.423360000000     0.0443216  
H231     H      0.665960000000     0.471990000000     0.404000000000     0.0446553  
H232     H      0.709010000000     0.438310000000     0.300370000000     0.0920384  
H233     H      0.711470000000     0.478640000000     0.343300000000     0.0685268  
H234     H      0.749170000000     0.432750000000     0.345920000000     0.0895001  
H235     H      0.976170000000     0.372680000000     0.123060000000     0.0412036  
H236     H      0.937930000000     0.333030000000     0.180920000000     0.0420053  
H237     H      0.815530000000     0.399300000000     0.149130000000     0.0492275  
H238     H      0.851970000000     0.428200000000     0.040710000000     0.0840018  
H239     H      0.806580000000     0.429980000000     0.079350000000     0.0694116  
H240     H      0.845860000000     0.474710000000     0.078300000000     0.0833032  
H241     H      0.578740000000     0.162310000000     0.620300000000     0.0438689  
H242     H      0.616340000000     0.202400000000     0.677630000000     0.0381334  
H243     H      0.727400000000     0.113700000000     0.671270000000     0.0492552  
H244     H      0.702820000000     0.066470000000     0.569630000000     0.0856536  
H245     H      0.733840000000     0.059770000000     0.619770000000     0.065536   
H246     H      0.681840000000     0.030850000000     0.614180000000     0.091973   
H247     H      0.578740000000     0.165760000000     0.919630000000     0.0444495  
H248     H      0.618560000000     0.208240000000     0.865030000000     0.0435216  
H249     H      0.733020000000     0.124820000000     0.879290000000     0.0456841  
H250     H      0.692410000000     0.040880000000     0.934120000000     0.0883944  
H251     H      0.740340000000     0.076440000000     0.936660000000     0.0663809  
H252     H      0.701040000000     0.078060000000     0.981190000000     0.0866514  
H253     H      0.722590000000     0.411840000000     0.664180000000     0.0390965  
H254     H      0.684980000000     0.451370000000     0.606390000000     0.0337099  
H255     H      0.571670000000     0.365900000000     0.617330000000     0.0521735  
H256     H      0.597640000000     0.321090000000     0.720310000000     0.0943651  
H257     H      0.564080000000     0.314940000000     0.671760000000     0.073541   
H258     H      0.614810000000     0.283610000000     0.675710000000     0.0958314  
H259     H      0.968820000000     0.169220000000     0.612230000000     0.0439596  
H260     H      0.930760000000     0.210140000000     0.668830000000     0.0440716  
H261     H      0.827860000000     0.112380000000     0.674690000000     0.0486682  
H262     H      0.881740000000     0.029490000000     0.622390000000     0.0917952  
H263     H      0.827020000000     0.051030000000     0.632920000000     0.0655595  
H264     H      0.849830000000     0.057940000000     0.578660000000     0.0862796  
H265     H      0.971800000000     0.367520000000     0.915840000000     0.0447935  
H266     H      0.932250000000     0.324920000000     0.861500000000     0.0440914  
H267     H      0.819600000000     0.411170000000     0.871240000000     0.0449217  
H268     H      0.863340000000     0.495650000000     0.924680000000     0.0883947  
H269     H      0.812970000000     0.463780000000     0.923910000000     0.0654255  
H270     H      0.848350000000     0.460430000000     0.971340000000     0.0857062  
H271     H      0.927840000000     0.215530000000     0.870730000000     0.0429514  
H272     H      0.969670000000     0.175270000000     0.926230000000     0.0441037  
H273     H      0.886460000000     0.062830000000     0.905750000000     0.0440626  
H274     H      0.843270000000     0.096900000000     0.802240000000     0.0918121  
H275     H      0.842400000000     0.055710000000     0.844280000000     0.0677787  
H276     H      0.803580000000     0.100640000000     0.848470000000     0.0895921  
H277     H      0.624530000000     0.319190000000     0.868620000000     0.0432062  
H278     H      0.582540000000     0.359270000000     0.923360000000     0.0443543  
H279     H      0.665960000000     0.471990000000     0.904000000000     0.0446765  
H280     H      0.709010000000     0.438310000000     0.800370000000     0.0920764  
H281     H      0.711470000000     0.478640000000     0.843310000000     0.0685181  
H282     H      0.749170000000     0.432750000000     0.845920000000     0.0894998  
H283     H      0.976170000000     0.372680000000     0.623060000000     0.0412253  
H284     H      0.937930000000     0.333030000000     0.680910000000     0.042003   
H285     H      0.815530000000     0.399300000000     0.649130000000     0.0492364  
H286     H      0.851970000000     0.428200000000     0.540710000000     0.0841188  
H287     H      0.806580000000     0.429980000000     0.579350000000     0.0694656  
H288     H      0.845860000000     0.474710000000     0.578310000000     0.0833393  
H289     H      0.578740000000     0.662310000000     0.120300000000     0.0438556  
H290     H      0.616340000000     0.702400000000     0.177630000000     0.0381223  
H291     H      0.727400000000     0.613710000000     0.171270000000     0.0492848  
H292     H      0.702820000000     0.566470000000     0.069630000000     0.0855676  
H293     H      0.733840000000     0.559770000000     0.119770000000     0.0655702  
H294     H      0.681840000000     0.530860000000     0.114180000000     0.0920613  
H295     H      0.578740000000     0.665760000000     0.419630000000     0.0444299  
H296     H      0.618560000000     0.708240000000     0.365030000000     0.0435143  
H297     H      0.733020000000     0.624820000000     0.379290000000     0.0456777  
H298     H      0.692410000000     0.540880000000     0.434120000000     0.0883849  
H299     H      0.740340000000     0.576440000000     0.436660000000     0.0663307  
H300     H      0.701040000000     0.578060000000     0.481200000000     0.0864954  
H301     H      0.722590000000     0.911840000000     0.164180000000     0.0391313  
H302     H      0.684980000000     0.951370000000     0.106390000000     0.0336996  
H303     H      0.571670000000     0.865900000000     0.117330000000     0.0521561  
H304     H      0.597640000000     0.821090000000     0.220310000000     0.094384   
H305     H      0.564080000000     0.814940000000     0.171760000000     0.0735429  
H306     H      0.614810000000     0.783610000000     0.175710000000     0.095824   
H307     H      0.968820000000     0.669220000000     0.112230000000     0.0439387  
H308     H      0.930760000000     0.710140000000     0.168830000000     0.0440638  
H309     H      0.827860000000     0.612380000000     0.174700000000     0.0486768  
H310     H      0.881740000000     0.529480000000     0.122390000000     0.0917458  
H311     H      0.827020000000     0.551030000000     0.132920000000     0.0655293  
H312     H      0.849830000000     0.557940000000     0.078660000000     0.0862128  
H313     H      0.971800000000     0.867510000000     0.415840000000     0.0447647  
H314     H      0.932250000000     0.824920000000     0.361500000000     0.0440853  
H315     H      0.819600000000     0.911170000000     0.371250000000     0.0449132  
H316     H      0.863340000000     0.995650000000     0.424680000000     0.0884161  
H317     H      0.812970000000     0.963780000000     0.423900000000     0.0653964  
H318     H      0.848350000000     0.960430000000     0.471340000000     0.0856117  
H319     H      0.927840000000     0.715530000000     0.370730000000     0.0429379  
H320     H      0.969670000000     0.675270000000     0.426240000000     0.0440723  
H321     H      0.886460000000     0.562830000000     0.405750000000     0.0440727  
H322     H      0.843270000000     0.596900000000     0.302240000000     0.091795   
H323     H      0.842400000000     0.555710000000     0.344280000000     0.0678045  
H324     H      0.803580000000     0.600630000000     0.348480000000     0.0895884  
H325     H      0.624530000000     0.819190000000     0.368620000000     0.0432021  
H326     H      0.582540000000     0.859270000000     0.423360000000     0.0443173  
H327     H      0.665960000000     0.971990000000     0.404000000000     0.0446935  
H328     H      0.709010000000     0.938310000000     0.300370000000     0.0920838  
H329     H      0.711470000000     0.978630000000     0.343300000000     0.0686214  
H330     H      0.749170000000     0.932750000000     0.345920000000     0.0895386  
H331     H      0.976170000000     0.872680000000     0.123060000000     0.0412063  
H332     H      0.937930000000     0.833030000000     0.180920000000     0.0420069  
H333     H      0.815530000000     0.899300000000     0.149130000000     0.0492347  
H334     H      0.851970000000     0.928190000000     0.040710000000     0.0839932  
H335     H      0.806580000000     0.929980000000     0.079350000000     0.0694221  
H336     H      0.845860000000     0.974710000000     0.078300000000     0.0833468  
H337     H      0.578740000000     0.662310000000     0.620300000000     0.043872   
H338     H      0.616340000000     0.702400000000     0.677630000000     0.038127   
H339     H      0.727400000000     0.613710000000     0.671270000000     0.0492874  
H340     H      0.702820000000     0.566470000000     0.569630000000     0.0856937  
H341     H      0.733840000000     0.559770000000     0.619770000000     0.0655835  
H342     H      0.681840000000     0.530860000000     0.614180000000     0.0920681  
H343     H      0.578740000000     0.665760000000     0.919630000000     0.0444499  
H344     H      0.618560000000     0.708240000000     0.865030000000     0.0435219  
H345     H      0.733020000000     0.624820000000     0.879290000000     0.0456916  
H346     H      0.692410000000     0.540880000000     0.934120000000     0.0884397  
H347     H      0.740340000000     0.576440000000     0.936660000000     0.0664025  
H348     H      0.701040000000     0.578060000000     0.981190000000     0.0866638  
H349     H      0.722590000000     0.911840000000     0.664180000000     0.039138   
H350     H      0.684980000000     0.951370000000     0.606390000000     0.0337271  
H351     H      0.571670000000     0.865900000000     0.617330000000     0.0521724  
H352     H      0.597640000000     0.821090000000     0.720310000000     0.0943788  
H353     H      0.564080000000     0.814940000000     0.671760000000     0.0735513  
H354     H      0.614810000000     0.783610000000     0.675710000000     0.0958399  
H355     H      0.968820000000     0.669220000000     0.612230000000     0.0439606  
H356     H      0.930760000000     0.710140000000     0.668830000000     0.0440722  
H357     H      0.827860000000     0.612380000000     0.674690000000     0.048675   
H358     H      0.881740000000     0.529480000000     0.622390000000     0.0917488  
H359     H      0.827020000000     0.551030000000     0.632920000000     0.0655458  
H360     H      0.849830000000     0.557940000000     0.578660000000     0.0862731  
H361     H      0.971800000000     0.867510000000     0.915840000000     0.0447858  
H362     H      0.932250000000     0.824920000000     0.861500000000     0.0440933  
H363     H      0.819600000000     0.911170000000     0.871240000000     0.0449276  
H364     H      0.863340000000     0.995650000000     0.924680000000     0.0884472  
H365     H      0.812970000000     0.963780000000     0.923910000000     0.0654528  
H366     H      0.848350000000     0.960430000000     0.971340000000     0.0857289  
H367     H      0.927840000000     0.715530000000     0.870730000000     0.0429525  
H368     H      0.969670000000     0.675270000000     0.926230000000     0.044103   
H369     H      0.886460000000     0.562830000000     0.905750000000     0.0440944  
H370     H      0.843270000000     0.596900000000     0.802240000000     0.0918369  
H371     H      0.842400000000     0.555710000000     0.844280000000     0.0678133  
H372     H      0.803580000000     0.600630000000     0.848470000000     0.0896126  
H373     H      0.624530000000     0.819190000000     0.868620000000     0.043213   
H374     H      0.582540000000     0.859270000000     0.923360000000     0.0443501  
H375     H      0.665960000000     0.971990000000     0.904000000000     0.0447147  
H376     H      0.709010000000     0.938310000000     0.800370000000     0.0921218  
H377     H      0.711470000000     0.978630000000     0.843310000000     0.0686127  
H378     H      0.749170000000     0.932750000000     0.845920000000     0.0895382  
H379     H      0.976170000000     0.872680000000     0.623060000000     0.041228   
H380     H      0.937930000000     0.833030000000     0.680910000000     0.0420046  
H381     H      0.815530000000     0.899300000000     0.649130000000     0.0492436  
H382     H      0.851970000000     0.928190000000     0.540710000000     0.0841102  
H383     H      0.806580000000     0.929980000000     0.579350000000     0.0694762  
H384     H      0.845860000000     0.974710000000     0.578310000000     0.0833829  
N1       N      0.174760000000     0.161040000000     0.178750000000    -0.16762    
N2       N      0.130910000000     0.113700000000     0.111070000000    -0.186785   
N3       N      0.178470000000     0.168940000000     0.367200000000    -0.166744   
N4       N      0.132340000000     0.119490000000     0.431800000000    -0.186276   
N5       N      0.125420000000     0.411600000000     0.107600000000    -0.167763   
N6       N      0.169260000000     0.364960000000     0.175600000000    -0.187728   
N7       N      0.376450000000     0.164160000000     0.176030000000    -0.167689   
N8       N      0.420880000000     0.115880000000     0.109560000000    -0.187683   
N9       N      0.373120000000     0.365430000000     0.361760000000    -0.167592   
N10      N      0.418990000000     0.415180000000     0.426160000000    -0.186739   
N11      N      0.430150000000     0.116300000000     0.421160000000    -0.166391   
N12      N      0.381990000000     0.162670000000     0.355730000000    -0.186758   
N13      N      0.122070000000     0.418310000000     0.418720000000    -0.166754   
N14      N      0.170650000000     0.371930000000     0.353640000000    -0.18677    
N15      N      0.374240000000     0.364510000000     0.170410000000    -0.166704   
N16      N      0.418190000000     0.409580000000     0.101610000000    -0.188019   
N17      N      0.174760000000     0.161040000000     0.678750000000    -0.167617   
N18      N      0.130910000000     0.113700000000     0.611070000000    -0.186781   
N19      N      0.178470000000     0.168940000000     0.867200000000    -0.166738   
N20      N      0.132340000000     0.119490000000     0.931800000000    -0.186263   
N21      N      0.125420000000     0.411600000000     0.607600000000    -0.167757   
N22      N      0.169260000000     0.364960000000     0.675600000000    -0.187697   
N23      N      0.376450000000     0.164160000000     0.676030000000    -0.167687   
N24      N      0.420880000000     0.115880000000     0.609560000000    -0.187694   
N25      N      0.373120000000     0.365430000000     0.861760000000    -0.167588   
N26      N      0.418990000000     0.415180000000     0.926160000000    -0.186723   
N27      N      0.430150000000     0.116300000000     0.921160000000    -0.166358   
N28      N      0.381990000000     0.162670000000     0.855730000000    -0.186731   
N29      N      0.122070000000     0.418310000000     0.918720000000    -0.166728   
N30      N      0.170650000000     0.371930000000     0.853640000000    -0.186767   
N31      N      0.374240000000     0.364510000000     0.670410000000    -0.166701   
N32      N      0.418190000000     0.409580000000     0.601610000000    -0.18801    
N33      N      0.174760000000     0.661050000000     0.178750000000    -0.167643   
N34      N      0.130910000000     0.613700000000     0.111070000000    -0.186793   
N35      N      0.178470000000     0.668940000000     0.367200000000    -0.166742   
N36      N      0.132340000000     0.619490000000     0.431800000000    -0.186277   
N37      N      0.125420000000     0.911600000000     0.107600000000    -0.167765   
N38      N      0.169260000000     0.864950000000     0.175600000000    -0.187731   
N39      N      0.376450000000     0.664160000000     0.176030000000    -0.167688   
N40      N      0.420880000000     0.615880000000     0.109560000000    -0.187664   
N41      N      0.373120000000     0.865430000000     0.361760000000    -0.167589   
N42      N      0.418990000000     0.915180000000     0.426160000000    -0.186739   
N43      N      0.430150000000     0.616300000000     0.421160000000    -0.166388   
N44      N      0.381990000000     0.662670000000     0.355730000000    -0.186741   
N45      N      0.122070000000     0.918310000000     0.418720000000    -0.166745   
N46      N      0.170650000000     0.871940000000     0.353640000000    -0.186759   
N47      N      0.374240000000     0.864510000000     0.170410000000    -0.166703   
N48      N      0.418190000000     0.909580000000     0.101610000000    -0.188015   
N49      N      0.174760000000     0.661050000000     0.678750000000    -0.16764    
N50      N      0.130910000000     0.613700000000     0.611070000000    -0.186788   
N51      N      0.178470000000     0.668940000000     0.867200000000    -0.166736   
N52      N      0.132340000000     0.619490000000     0.931800000000    -0.186264   
N53      N      0.125420000000     0.911600000000     0.607600000000    -0.16776    
N54      N      0.169260000000     0.864950000000     0.675600000000    -0.1877     
N55      N      0.376450000000     0.664160000000     0.676030000000    -0.167686   
N56      N      0.420880000000     0.615880000000     0.609560000000    -0.187674   
N57      N      0.373120000000     0.865430000000     0.861760000000    -0.167585   
N58      N      0.418990000000     0.915180000000     0.926160000000    -0.186724   
N59      N      0.430150000000     0.616300000000     0.921160000000    -0.166355   
N60      N      0.381990000000     0.662670000000     0.855730000000    -0.186715   
N61      N      0.122070000000     0.918310000000     0.918720000000    -0.166719   
N62      N      0.170650000000     0.871940000000     0.853640000000    -0.186756   
N63      N      0.374240000000     0.864510000000     0.670410000000    -0.166699   
N64      N      0.418190000000     0.909580000000     0.601610000000    -0.188006   
N65      N      0.674760000000     0.161040000000     0.178750000000    -0.167597   
N66      N      0.630910000000     0.113700000000     0.111070000000    -0.186788   
N67      N      0.678470000000     0.168940000000     0.367200000000    -0.166743   
N68      N      0.632340000000     0.119490000000     0.431800000000    -0.186273   
N69      N      0.625420000000     0.411600000000     0.107600000000    -0.167759   
N70      N      0.669260000000     0.364960000000     0.175600000000    -0.187729   
N71      N      0.876450000000     0.164160000000     0.176030000000    -0.167683   
N72      N      0.920880000000     0.115880000000     0.109560000000    -0.187678   
N73      N      0.873120000000     0.365430000000     0.361760000000    -0.167611   
N74      N      0.918990000000     0.415180000000     0.426160000000    -0.186756   
N75      N      0.930150000000     0.116300000000     0.421160000000    -0.16636    
N76      N      0.881990000000     0.162670000000     0.355730000000    -0.186758   
N77      N      0.622070000000     0.418310000000     0.418720000000    -0.16675    
N78      N      0.670650000000     0.371930000000     0.353640000000    -0.186769   
N79      N      0.874250000000     0.364510000000     0.170410000000    -0.166649   
N80      N      0.918190000000     0.409580000000     0.101610000000    -0.188021   
N81      N      0.674760000000     0.161040000000     0.678750000000    -0.167595   
N82      N      0.630910000000     0.113700000000     0.611070000000    -0.186783   
N83      N      0.678470000000     0.168940000000     0.867200000000    -0.166737   
N84      N      0.632340000000     0.119490000000     0.931800000000    -0.18626    
N85      N      0.625420000000     0.411600000000     0.607600000000    -0.167754   
N86      N      0.669260000000     0.364960000000     0.675600000000    -0.187698   
N87      N      0.876450000000     0.164160000000     0.676030000000    -0.167681   
N88      N      0.920880000000     0.115880000000     0.609560000000    -0.187689   
N89      N      0.873120000000     0.365430000000     0.861760000000    -0.167607   
N90      N      0.918990000000     0.415180000000     0.926160000000    -0.186741   
N91      N      0.930150000000     0.116300000000     0.921160000000    -0.166327   
N92      N      0.881990000000     0.162670000000     0.855730000000    -0.186732   
N93      N      0.622070000000     0.418310000000     0.918720000000    -0.166724   
N94      N      0.670650000000     0.371930000000     0.853640000000    -0.186766   
N95      N      0.874250000000     0.364510000000     0.670410000000    -0.166646   
N96      N      0.918190000000     0.409580000000     0.601610000000    -0.188012   
N97      N      0.674760000000     0.661050000000     0.178750000000    -0.167621   
N98      N      0.630910000000     0.613700000000     0.111070000000    -0.186795   
N99      N      0.678470000000     0.668940000000     0.367200000000    -0.166741   
N100     N      0.632340000000     0.619490000000     0.431800000000    -0.186274   
N101     N      0.625420000000     0.911600000000     0.107600000000    -0.167761   
N102     N      0.669260000000     0.864950000000     0.175600000000    -0.187732   
N103     N      0.876450000000     0.664160000000     0.176030000000    -0.167682   
N104     N      0.920880000000     0.615880000000     0.109560000000    -0.187659   
N105     N      0.873120000000     0.865430000000     0.361760000000    -0.167608   
N106     N      0.918990000000     0.915180000000     0.426160000000    -0.186756   
N107     N      0.930150000000     0.616300000000     0.421160000000    -0.166357   
N108     N      0.881990000000     0.662670000000     0.355730000000    -0.186742   
N109     N      0.622070000000     0.918310000000     0.418720000000    -0.166741   
N110     N      0.670650000000     0.871940000000     0.353640000000    -0.186758   
N111     N      0.874250000000     0.864510000000     0.170410000000    -0.166647   
N112     N      0.918190000000     0.909580000000     0.101610000000    -0.188017   
N113     N      0.674760000000     0.661050000000     0.678750000000    -0.167618   
N114     N      0.630910000000     0.613700000000     0.611070000000    -0.186791   
N115     N      0.678470000000     0.668940000000     0.867200000000    -0.166735   
N116     N      0.632340000000     0.619490000000     0.931800000000    -0.186261   
N117     N      0.625420000000     0.911600000000     0.607600000000    -0.167756   
N118     N      0.669260000000     0.864950000000     0.675600000000    -0.187701   
N119     N      0.876450000000     0.664160000000     0.676030000000    -0.167679   
N120     N      0.920880000000     0.615880000000     0.609560000000    -0.187669   
N121     N      0.873120000000     0.865430000000     0.861760000000    -0.167605   
N122     N      0.918990000000     0.915180000000     0.926160000000    -0.186741   
N123     N      0.930150000000     0.616300000000     0.921160000000    -0.166324   
N124     N      0.881990000000     0.662670000000     0.855730000000    -0.186715   
N125     N      0.622070000000     0.918310000000     0.918720000000    -0.166715   
N126     N      0.670650000000     0.871940000000     0.853640000000    -0.186755   
N127     N      0.874250000000     0.864510000000     0.670410000000    -0.166644   
N128     N      0.918190000000     0.909580000000     0.601610000000    -0.188008   
O1       O      0.427090000000     0.470780000000     0.056580000000    -0.366209   
O2       O      0.121090000000     0.054770000000     0.063120000000    -0.368677   
O3       O      0.064880000000     0.421740000000     0.061720000000    -0.362426   
O4       O      0.482660000000     0.108900000000     0.063800000000    -0.363066   
O5       O      0.120500000000     0.470870000000     0.060120000000    -0.366735   
O6       O      0.430220000000     0.057000000000     0.061690000000    -0.376665   
O7       O      0.069360000000     0.107420000000     0.065020000000    -0.361732   
O8       O      0.481620000000     0.420740000000     0.059650000000    -0.359531   
O9       O      0.436960000000     0.056080000000     0.467090000000    -0.375928   
O10      O      0.114740000000     0.477440000000     0.466050000000    -0.374523   
O11      O      0.482100000000     0.423980000000     0.469830000000    -0.366335   
O12      O      0.069050000000     0.109700000000     0.475090000000    -0.364894   
O13      O      0.120870000000     0.056990000000     0.474150000000    -0.374775   
O14      O      0.429580000000     0.475890000000     0.471370000000    -0.374209   
O15      O      0.487380000000     0.110200000000     0.472280000000    -0.365879   
O16      O      0.063990000000     0.423460000000     0.468740000000    -0.368622   
O17      O      0.525110000000     0.515330000000     0.035550000000    -0.589255   
O18      O      0.313290000000     0.355350000000     0.215990000000    -0.365659   
O19      O      0.235090000000     0.171470000000     0.224940000000    -0.365122   
O20      O      0.370450000000     0.224600000000     0.221710000000    -0.360438   
O21      O      0.178980000000     0.305980000000     0.223290000000    -0.366806   
O22      O      0.317290000000     0.172900000000     0.223980000000    -0.364322   
O23      O      0.231290000000     0.358070000000     0.220870000000    -0.361884   
O24      O      0.179940000000     0.221110000000     0.225320000000    -0.361747   
O25      O      0.371320000000     0.309400000000     0.222940000000    -0.357786   
O26      O      0.233020000000     0.360350000000     0.309590000000    -0.374171   
O27      O      0.318470000000     0.174030000000     0.313800000000    -0.377375   
O28      O      0.368790000000     0.306730000000     0.313760000000    -0.370779   
O29      O      0.182330000000     0.225990000000     0.316790000000    -0.368064   
O30      O      0.238620000000     0.177670000000     0.320260000000    -0.375889   
O31      O      0.313160000000     0.355960000000     0.314700000000    -0.378102   
O32      O      0.180370000000     0.308480000000     0.312200000000    -0.366817   
O33      O      0.372210000000     0.224850000000     0.312060000000    -0.362732   
O34      O      0.275360000000     0.265410000000     0.249610000000    -0.589931   
O35      O      0.427090000000     0.470780000000     0.556580000000    -0.366203   
O36      O      0.121090000000     0.054770000000     0.563120000000    -0.368675   
O37      O      0.064880000000     0.421740000000     0.561720000000    -0.362427   
O38      O      0.482660000000     0.108900000000     0.563800000000    -0.363019   
O39      O      0.120500000000     0.470870000000     0.560120000000    -0.36673    
O40      O      0.430220000000     0.057000000000     0.561690000000    -0.376667   
O41      O      0.069360000000     0.107420000000     0.565020000000    -0.361683   
O42      O      0.481620000000     0.420740000000     0.559650000000    -0.359526   
O43      O      0.436960000000     0.056080000000     0.967090000000    -0.375706   
O44      O      0.114740000000     0.477440000000     0.966040000000    -0.3743     
O45      O      0.482100000000     0.423980000000     0.969830000000    -0.366114   
O46      O      0.069050000000     0.109700000000     0.975090000000    -0.364635   
O47      O      0.120870000000     0.056990000000     0.974150000000    -0.374553   
O48      O      0.429580000000     0.475890000000     0.971370000000    -0.37399    
O49      O      0.487380000000     0.110200000000     0.972280000000    -0.365617   
O50      O      0.063990000000     0.423460000000     0.968740000000    -0.368415   
O51      O      0.525110000000     0.515330000000     0.535550000000    -0.589381   
O52      O      0.313290000000     0.355350000000     0.715990000000    -0.365656   
O53      O      0.235090000000     0.171470000000     0.724940000000    -0.365121   
O54      O      0.370450000000     0.224600000000     0.721710000000    -0.360439   
O55      O      0.178980000000     0.305980000000     0.723290000000    -0.366848   
O56      O      0.317290000000     0.172900000000     0.723980000000    -0.364323   
O57      O      0.231290000000     0.358070000000     0.720870000000    -0.361923   
O58      O      0.179940000000     0.221110000000     0.725320000000    -0.361744   
O59      O      0.371320000000     0.309400000000     0.722940000000    -0.357784   
O60      O      0.233020000000     0.360350000000     0.809590000000    -0.374172   
O61      O      0.318470000000     0.174030000000     0.813800000000    -0.377411   
O62      O      0.368790000000     0.306730000000     0.813760000000    -0.370773   
O63      O      0.182330000000     0.225990000000     0.816790000000    -0.368062   
O64      O      0.238620000000     0.177670000000     0.820260000000    -0.375885   
O65      O      0.313160000000     0.355960000000     0.814700000000    -0.378102   
O66      O      0.180370000000     0.308480000000     0.812200000000    -0.366817   
O67      O      0.372210000000     0.224850000000     0.812060000000    -0.362769   
O68      O      0.275360000000     0.265410000000     0.749610000000    -0.589927   
O69      O      0.427090000000     0.970780000000     0.056580000000    -0.366128   
O70      O      0.121090000000     0.554770000000     0.063120000000    -0.368676   
O71      O      0.064880000000     0.921740000000     0.061720000000    -0.36243    
O72      O      0.482660000000     0.608900000000     0.063800000000    -0.363057   
O73      O      0.120500000000     0.970870000000     0.060120000000    -0.366647   
O74      O      0.430220000000     0.557000000000     0.061690000000    -0.376739   
O75      O      0.069360000000     0.607420000000     0.065020000000    -0.36174    
O76      O      0.481620000000     0.920740000000     0.059650000000    -0.359537   
O77      O      0.436960000000     0.556080000000     0.467090000000    -0.375914   
O78      O      0.114740000000     0.977440000000     0.466050000000    -0.374435   
O79      O      0.482100000000     0.923980000000     0.469830000000    -0.366342   
O80      O      0.069050000000     0.609700000000     0.475090000000    -0.364902   
O81      O      0.120870000000     0.556990000000     0.474150000000    -0.374768   
O82      O      0.429580000000     0.975890000000     0.471370000000    -0.374129   
O83      O      0.487380000000     0.610200000000     0.472280000000    -0.365887   
O84      O      0.063990000000     0.923460000000     0.468740000000    -0.368631   
O85      O      0.525110000000     0.015320000000     0.035550000000    -0.589285   
O86      O      0.313290000000     0.855350000000     0.215990000000    -0.365653   
O87      O      0.235090000000     0.671470000000     0.224940000000    -0.365125   
O88      O      0.370450000000     0.724600000000     0.221710000000    -0.360437   
O89      O      0.178980000000     0.805980000000     0.223290000000    -0.366815   
O90      O      0.317290000000     0.672900000000     0.223980000000    -0.364314   
O91      O      0.231290000000     0.858070000000     0.220870000000    -0.36189    
O92      O      0.179940000000     0.721110000000     0.225320000000    -0.361754   
O93      O      0.371320000000     0.809400000000     0.222940000000    -0.357785   
O94      O      0.233020000000     0.860350000000     0.309590000000    -0.374158   
O95      O      0.318470000000     0.674020000000     0.313800000000    -0.377295   
O96      O      0.368790000000     0.806730000000     0.313760000000    -0.370779   
O97      O      0.182330000000     0.725990000000     0.316790000000    -0.368065   
O98      O      0.238620000000     0.677670000000     0.320260000000    -0.375886   
O99      O      0.313160000000     0.855960000000     0.314700000000    -0.378099   
O100     O      0.180370000000     0.808480000000     0.312200000000    -0.366809   
O101     O      0.372210000000     0.724850000000     0.312060000000    -0.362717   
O102     O      0.275360000000     0.765410000000     0.249610000000    -0.589929   
O103     O      0.427090000000     0.970780000000     0.556580000000    -0.366122   
O104     O      0.121090000000     0.554770000000     0.563120000000    -0.368674   
O105     O      0.064880000000     0.921740000000     0.561720000000    -0.362431   
O106     O      0.482660000000     0.608900000000     0.563800000000    -0.36301    
O107     O      0.120500000000     0.970870000000     0.560120000000    -0.366642   
O108     O      0.430220000000     0.557000000000     0.561690000000    -0.376741   
O109     O      0.069360000000     0.607420000000     0.565020000000    -0.361691   
O110     O      0.481620000000     0.920740000000     0.559650000000    -0.359531   
O111     O      0.436960000000     0.556080000000     0.967090000000    -0.375692   
O112     O      0.114740000000     0.977440000000     0.966040000000    -0.374212   
O113     O      0.482100000000     0.923980000000     0.969830000000    -0.366121   
O114     O      0.069050000000     0.609700000000     0.975090000000    -0.364644   
O115     O      0.120870000000     0.556990000000     0.974150000000    -0.374546   
O116     O      0.429580000000     0.975890000000     0.971370000000    -0.373911   
O117     O      0.487380000000     0.610200000000     0.972280000000    -0.365625   
O118     O      0.063990000000     0.923460000000     0.968740000000    -0.368424   
O119     O      0.525110000000     0.015320000000     0.535550000000    -0.589412   
O120     O      0.313290000000     0.855350000000     0.715990000000    -0.36565    
O121     O      0.235090000000     0.671470000000     0.724940000000    -0.365125   
O122     O      0.370450000000     0.724600000000     0.721710000000    -0.360438   
O123     O      0.178980000000     0.805980000000     0.723290000000    -0.366857   
O124     O      0.317290000000     0.672900000000     0.723980000000    -0.364316   
O125     O      0.231290000000     0.858070000000     0.720870000000    -0.361929   
O126     O      0.179940000000     0.721110000000     0.725320000000    -0.361751   
O127     O      0.371320000000     0.809400000000     0.722940000000    -0.357782   
O128     O      0.233020000000     0.860350000000     0.809590000000    -0.374159   
O129     O      0.318470000000     0.674020000000     0.813800000000    -0.377331   
O130     O      0.368790000000     0.806730000000     0.813760000000    -0.370774   
O131     O      0.182330000000     0.725990000000     0.816790000000    -0.368062   
O132     O      0.238620000000     0.677670000000     0.820260000000    -0.375881   
O133     O      0.313160000000     0.855960000000     0.814700000000    -0.378099   
O134     O      0.180370000000     0.808480000000     0.812200000000    -0.36681    
O135     O      0.372210000000     0.724850000000     0.812060000000    -0.362755   
O136     O      0.275360000000     0.765410000000     0.749610000000    -0.589924   
O137     O      0.927090000000     0.470780000000     0.056580000000    -0.366205   
O138     O      0.621090000000     0.054770000000     0.063120000000    -0.368676   
O139     O      0.564880000000     0.421740000000     0.061720000000    -0.362415   
O140     O      0.982660000000     0.108900000000     0.063800000000    -0.362961   
O141     O      0.620500000000     0.470870000000     0.060120000000    -0.366735   
O142     O      0.930220000000     0.057000000000     0.061690000000    -0.376662   
O143     O      0.569360000000     0.107420000000     0.065020000000    -0.361722   
O144     O      0.981620000000     0.420740000000     0.059650000000    -0.359421   
O145     O      0.936960000000     0.056080000000     0.467090000000    -0.375905   
O146     O      0.614740000000     0.477440000000     0.466050000000    -0.37452    
O147     O      0.982090000000     0.423980000000     0.469830000000    -0.366301   
O148     O      0.569050000000     0.109700000000     0.475090000000    -0.364879   
O149     O      0.620870000000     0.056990000000     0.474150000000    -0.374772   
O150     O      0.929580000000     0.475890000000     0.471370000000    -0.374246   
O151     O      0.987380000000     0.110200000000     0.472280000000    -0.365841   
O152     O      0.563990000000     0.423460000000     0.468740000000    -0.368599   
O153     O      0.025110000000     0.515330000000     0.035550000000    -0.589299   
O154     O      0.813290000000     0.355350000000     0.215990000000    -0.365649   
O155     O      0.735090000000     0.171470000000     0.224940000000    -0.36512    
O156     O      0.870450000000     0.224600000000     0.221710000000    -0.360431   
O157     O      0.678980000000     0.305980000000     0.223290000000    -0.366804   
O158     O      0.817290000000     0.172900000000     0.223980000000    -0.364321   
O159     O      0.731290000000     0.358070000000     0.220870000000    -0.361883   
O160     O      0.679940000000     0.221110000000     0.225320000000    -0.36174    
O161     O      0.871320000000     0.309400000000     0.222940000000    -0.357766   
O162     O      0.733020000000     0.360350000000     0.309590000000    -0.374173   
O163     O      0.818470000000     0.174030000000     0.313800000000    -0.377376   
O164     O      0.868790000000     0.306730000000     0.313760000000    -0.370794   
O165     O      0.682330000000     0.225990000000     0.316790000000    -0.368059   
O166     O      0.738620000000     0.177670000000     0.320260000000    -0.375889   
O167     O      0.813160000000     0.355960000000     0.314700000000    -0.378027   
O168     O      0.680370000000     0.308480000000     0.312200000000    -0.366812   
O169     O      0.872210000000     0.224850000000     0.312060000000    -0.362724   
O170     O      0.775360000000     0.265410000000     0.249610000000    -0.589931   
O171     O      0.927090000000     0.470780000000     0.556580000000    -0.366199   
O172     O      0.621090000000     0.054770000000     0.563120000000    -0.368674   
O173     O      0.564880000000     0.421740000000     0.561720000000    -0.362416   
O174     O      0.982660000000     0.108900000000     0.563800000000    -0.362914   
O175     O      0.620500000000     0.470870000000     0.560120000000    -0.36673    
O176     O      0.930220000000     0.057000000000     0.561690000000    -0.376664   
O177     O      0.569360000000     0.107420000000     0.565020000000    -0.361673   
O178     O      0.981620000000     0.420740000000     0.559650000000    -0.359416   
O179     O      0.936960000000     0.056080000000     0.967090000000    -0.375683   
O180     O      0.614740000000     0.477440000000     0.966040000000    -0.374296   
O181     O      0.982090000000     0.423980000000     0.969830000000    -0.36608    
O182     O      0.569050000000     0.109700000000     0.975090000000    -0.36462    
O183     O      0.620870000000     0.056990000000     0.974150000000    -0.37455    
O184     O      0.929580000000     0.475890000000     0.971370000000    -0.374027   
O185     O      0.987380000000     0.110200000000     0.972280000000    -0.365579   
O186     O      0.563990000000     0.423460000000     0.968740000000    -0.368393   
O187     O      0.025110000000     0.515330000000     0.535550000000    -0.589425   
O188     O      0.813290000000     0.355350000000     0.715990000000    -0.365646   
O189     O      0.735090000000     0.171470000000     0.724940000000    -0.36512    
O190     O      0.870450000000     0.224600000000     0.721710000000    -0.360432   
O191     O      0.678980000000     0.305980000000     0.723290000000    -0.366846   
O192     O      0.817290000000     0.172900000000     0.723980000000    -0.364322   
O193     O      0.731290000000     0.358070000000     0.720870000000    -0.361923   
O194     O      0.679940000000     0.221110000000     0.725320000000    -0.361737   
O195     O      0.871320000000     0.309400000000     0.722940000000    -0.357764   
O196     O      0.733020000000     0.360350000000     0.809590000000    -0.374173   
O197     O      0.818470000000     0.174030000000     0.813800000000    -0.377412   
O198     O      0.868790000000     0.306730000000     0.813760000000    -0.370789   
O199     O      0.682330000000     0.225990000000     0.816790000000    -0.368057   
O200     O      0.738620000000     0.177670000000     0.820260000000    -0.375884   
O201     O      0.813160000000     0.355960000000     0.814700000000    -0.378026   
O202     O      0.680370000000     0.308480000000     0.812200000000    -0.366813   
O203     O      0.872210000000     0.224850000000     0.812060000000    -0.362761   
O204     O      0.775360000000     0.265410000000     0.749610000000    -0.589927   
O205     O      0.927090000000     0.970780000000     0.056580000000    -0.366123   
O206     O      0.621090000000     0.554770000000     0.063120000000    -0.368676   
O207     O      0.564880000000     0.921740000000     0.061720000000    -0.362419   
O208     O      0.982660000000     0.608900000000     0.063800000000    -0.362952   
O209     O      0.620500000000     0.970870000000     0.060120000000    -0.366647   
O210     O      0.930220000000     0.557000000000     0.061690000000    -0.376736   
O211     O      0.569360000000     0.607420000000     0.065020000000    -0.36173    
O212     O      0.981620000000     0.920740000000     0.059650000000    -0.359426   
O213     O      0.936960000000     0.556080000000     0.467090000000    -0.375891   
O214     O      0.614740000000     0.977440000000     0.466050000000    -0.374431   
O215     O      0.982090000000     0.923980000000     0.469830000000    -0.366308   
O216     O      0.569050000000     0.609700000000     0.475090000000    -0.364888   
O217     O      0.620870000000     0.556990000000     0.474150000000    -0.374765   
O218     O      0.929580000000     0.975890000000     0.471370000000    -0.374166   
O219     O      0.987380000000     0.610200000000     0.472280000000    -0.365849   
O220     O      0.563990000000     0.923460000000     0.468740000000    -0.368608   
O221     O      0.025110000000     0.015320000000     0.035550000000    -0.589329   
O222     O      0.813290000000     0.855350000000     0.215990000000    -0.365643   
O223     O      0.735090000000     0.671470000000     0.224940000000    -0.365123   
O224     O      0.870450000000     0.724600000000     0.221710000000    -0.36043    
O225     O      0.678980000000     0.805980000000     0.223290000000    -0.366813   
O226     O      0.817290000000     0.672900000000     0.223980000000    -0.364313   
O227     O      0.731290000000     0.858070000000     0.220870000000    -0.361889   
O228     O      0.679940000000     0.721110000000     0.225320000000    -0.361747   
O229     O      0.871320000000     0.809400000000     0.222940000000    -0.357764   
O230     O      0.733020000000     0.860350000000     0.309590000000    -0.37416    
O231     O      0.818470000000     0.674020000000     0.313800000000    -0.377295   
O232     O      0.868790000000     0.806730000000     0.313760000000    -0.370794   
O233     O      0.682330000000     0.725990000000     0.316790000000    -0.368059   
O234     O      0.738620000000     0.677670000000     0.320260000000    -0.375885   
O235     O      0.813160000000     0.855960000000     0.314700000000    -0.378024   
O236     O      0.680370000000     0.808480000000     0.312200000000    -0.366805   
O237     O      0.872210000000     0.724850000000     0.312060000000    -0.362709   
O238     O      0.775360000000     0.765410000000     0.249610000000    -0.589929   
O239     O      0.927090000000     0.970780000000     0.556580000000    -0.366118   
O240     O      0.621090000000     0.554770000000     0.563120000000    -0.368674   
O241     O      0.564880000000     0.921740000000     0.561720000000    -0.36242    
O242     O      0.982660000000     0.608900000000     0.563800000000    -0.362905   
O243     O      0.620500000000     0.970870000000     0.560120000000    -0.366642   
O244     O      0.930220000000     0.557000000000     0.561690000000    -0.376738   
O245     O      0.569360000000     0.607420000000     0.565020000000    -0.361681   
O246     O      0.981620000000     0.920740000000     0.559650000000    -0.359421   
O247     O      0.936960000000     0.556080000000     0.967090000000    -0.375669   
O248     O      0.614740000000     0.977440000000     0.966040000000    -0.374208   
O249     O      0.982090000000     0.923980000000     0.969830000000    -0.366087   
O250     O      0.569050000000     0.609700000000     0.975090000000    -0.364629   
O251     O      0.620870000000     0.556990000000     0.974150000000    -0.374543   
O252     O      0.929580000000     0.975890000000     0.971370000000    -0.373947   
O253     O      0.987380000000     0.610200000000     0.972280000000    -0.365587   
O254     O      0.563990000000     0.923460000000     0.968740000000    -0.368401   
O255     O      0.025110000000     0.015320000000     0.535550000000    -0.589456   
O256     O      0.813290000000     0.855350000000     0.715990000000    -0.36564    
O257     O      0.735090000000     0.671470000000     0.724940000000    -0.365123   
O258     O      0.870450000000     0.724600000000     0.721710000000    -0.360431   
O259     O      0.678980000000     0.805980000000     0.723290000000    -0.366855   
O260     O      0.817290000000     0.672900000000     0.723980000000    -0.364315   
O261     O      0.731290000000     0.858070000000     0.720870000000    -0.361929   
O262     O      0.679940000000     0.721110000000     0.725320000000    -0.361744   
O263     O      0.871320000000     0.809400000000     0.722940000000    -0.357762   
O264     O      0.733020000000     0.860350000000     0.809590000000    -0.37416    
O265     O      0.818470000000     0.674020000000     0.813800000000    -0.377331   
O266     O      0.868790000000     0.806730000000     0.813760000000    -0.370789   
O267     O      0.682330000000     0.725990000000     0.816790000000    -0.368057   
O268     O      0.738620000000     0.677670000000     0.820260000000    -0.375881   
O269     O      0.813160000000     0.855960000000     0.814700000000    -0.378023   
O270     O      0.680370000000     0.808480000000     0.812200000000    -0.366805   
O271     O      0.872210000000     0.724850000000     0.812060000000    -0.362747   
O272     O      0.775360000000     0.765410000000     0.749610000000    -0.589924   


