data_structure

_audit_creation_method RASPA-1.0
_audit_creation_date 2023-5-19
_audit_author_name 'Poobodin Mano'

_cell_length_a    30.476
_cell_length_b    30.4652
_cell_length_c    30.6286
_cell_angle_alpha 90
_cell_angle_beta  90
_cell_angle_gamma 90
_cell_volume      28437.4

_symmetry_cell_setting          triclinic
_symmetry_space_group_name_Hall 'P 1'
_symmetry_space_group_name_H-M  'P 1'
_symmetry_Int_Tables_number     1

_symmetry_equiv_pos_as_xyz 'x,y,z'

loop_
_atom_site_label
_atom_site_type_symbol
_atom_site_fract_x
_atom_site_fract_y
_atom_site_fract_z
_atom_site_charge
C1       C      0.425120000000     0.425280000000     0.437630000000     0.337863   
C2       C      0.076410000000     0.076600000000     0.437630000000     0.337729   
C3       C      0.425120000000     0.076600000000     0.437630000000     0.337738   
C4       C      0.076410000000     0.425280000000     0.437630000000     0.337846   
C5       C      0.078430000000     0.423270000000     0.056190000000     0.343778   
C6       C      0.423100000000     0.078620000000     0.056190000000     0.343883   
C7       C      0.423100000000     0.423270000000     0.056190000000     0.34397    
C8       C      0.078430000000     0.078620000000     0.056190000000     0.34384    
C9       C      0.328430000000     0.328610000000     0.190350000000     0.343996   
C10      C      0.173100000000     0.173270000000     0.190350000000     0.344102   
C11      C      0.328430000000     0.173270000000     0.190350000000     0.34412    
C12      C      0.173100000000     0.328610000000     0.190350000000     0.34401    
C13      C      0.175120000000     0.326600000000     0.308910000000     0.337707   
C14      C      0.326410000000     0.175280000000     0.308910000000     0.337912   
C15      C      0.326410000000     0.326600000000     0.308910000000     0.337785   
C16      C      0.175120000000     0.175280000000     0.308910000000     0.337812   
C17      C      0.086380000000     0.142760000000     0.106910000000    -0.00414156 
C18      C      0.102910000000     0.103090000000     0.090160000000    -0.0755151  
C19      C      0.142550000000     0.086530000000     0.106920000000    -0.00413791 
C20      C      0.165150000000     0.109120000000     0.139630000000    -0.00405646 
C21      C      0.148620000000     0.148790000000     0.156390000000    -0.075664   
C22      C      0.108980000000     0.165350000000     0.139620000000    -0.00405716 
C23      C      0.109700000000     0.166060000000     0.357930000000    -0.00509125 
C24      C      0.150060000000     0.150230000000     0.342140000000    -0.0744605  
C25      C      0.165830000000     0.109820000000     0.357890000000    -0.00510025 
C26      C      0.141820000000     0.085830000000     0.388610000000    -0.00504904 
C27      C      0.101470000000     0.101660000000     0.404390000000    -0.0744231  
C28      C      0.085700000000     0.142060000000     0.388650000000    -0.0050816  
C29      C      0.086380000000     0.359120000000     0.106920000000    -0.00416874 
C30      C      0.102900000000     0.398790000000     0.090160000000    -0.0754737  
C31      C      0.142550000000     0.415350000000     0.106910000000    -0.00413881 
C32      C      0.165150000000     0.392760000000     0.139620000000    -0.00407711 
C33      C      0.148620000000     0.353090000000     0.156390000000    -0.0756329  
C34      C      0.108980000000     0.336540000000     0.139630000000    -0.00403036 
C35      C      0.415150000000     0.142760000000     0.106920000000    -0.00412218 
C36      C      0.398630000000     0.103090000000     0.090160000000    -0.0755526  
C37      C      0.358980000000     0.086540000000     0.106910000000    -0.00411983 
C38      C      0.336380000000     0.109130000000     0.139620000000    -0.00403208 
C39      C      0.352900000000     0.148790000000     0.156390000000    -0.0756945  
C40      C      0.392550000000     0.165350000000     0.139630000000    -0.0040617  
C41      C      0.415840000000     0.359830000000     0.388640000000    -0.00509731 
C42      C      0.400060000000     0.400230000000     0.404390000000    -0.0744631  
C43      C      0.359700000000     0.416050000000     0.388620000000    -0.00503649 
C44      C      0.335690000000     0.392050000000     0.357900000000    -0.00506992 
C45      C      0.351470000000     0.351660000000     0.342140000000    -0.0744527  
C46      C      0.391830000000     0.335840000000     0.357920000000    -0.0050319  
C47      C      0.359700000000     0.085840000000     0.388620000000    -0.00507381 
C48      C      0.400060000000     0.101660000000     0.404390000000    -0.0743961  
C49      C      0.415840000000     0.142050000000     0.388640000000    -0.00510942 
C50      C      0.391830000000     0.166050000000     0.357920000000    -0.00499952 
C51      C      0.351470000000     0.150230000000     0.342140000000    -0.0745325  
C52      C      0.335690000000     0.109830000000     0.357900000000    -0.00506394 
C53      C      0.109700000000     0.335840000000     0.357920000000    -0.005045   
C54      C      0.150060000000     0.351660000000     0.342140000000    -0.0744464  
C55      C      0.165830000000     0.392050000000     0.357900000000    -0.00502393 
C56      C      0.141830000000     0.416050000000     0.388620000000    -0.00508183 
C57      C      0.101470000000     0.400230000000     0.404390000000    -0.0744606  
C58      C      0.085690000000     0.359830000000     0.388640000000    -0.00508546 
C59      C      0.336380000000     0.392750000000     0.139620000000    -0.00401443 
C60      C      0.352900000000     0.353090000000     0.156380000000    -0.0756295  
C61      C      0.392550000000     0.336540000000     0.139630000000    -0.00406117 
C62      C      0.415150000000     0.359130000000     0.106920000000    -0.00409699 
C63      C      0.398630000000     0.398790000000     0.090160000000    -0.0755314  
C64      C      0.358970000000     0.415340000000     0.106910000000    -0.00415774 
C65      C      0.425120000000     0.425280000000     0.937630000000     0.337816   
C66      C      0.076410000000     0.076600000000     0.937630000000     0.337682   
C67      C      0.425120000000     0.076600000000     0.937630000000     0.337691   
C68      C      0.076410000000     0.425280000000     0.937630000000     0.337799   
C69      C      0.078430000000     0.423270000000     0.556190000000     0.343883   
C70      C      0.423100000000     0.078620000000     0.556190000000     0.343987   
C71      C      0.423100000000     0.423270000000     0.556190000000     0.344037   
C72      C      0.078430000000     0.078620000000     0.556190000000     0.343945   
C73      C      0.328430000000     0.328610000000     0.690350000000     0.343989   
C74      C      0.173100000000     0.173270000000     0.690350000000     0.344053   
C75      C      0.328430000000     0.173270000000     0.690350000000     0.344071   
C76      C      0.173100000000     0.328610000000     0.690350000000     0.343961   
C77      C      0.175120000000     0.326600000000     0.808910000000     0.337665   
C78      C      0.326410000000     0.175280000000     0.808910000000     0.337871   
C79      C      0.326410000000     0.326600000000     0.808910000000     0.337743   
C80      C      0.175120000000     0.175280000000     0.808910000000     0.33777    
C81      C      0.086380000000     0.142760000000     0.606910000000    -0.00410885 
C82      C      0.102910000000     0.103090000000     0.590160000000    -0.0756001  
C83      C      0.142550000000     0.086530000000     0.606920000000    -0.00410896 
C84      C      0.165150000000     0.109120000000     0.639630000000    -0.00410934 
C85      C      0.148620000000     0.148790000000     0.656380000000    -0.075598   
C86      C      0.108980000000     0.165350000000     0.639630000000    -0.00411395 
C87      C      0.109700000000     0.166060000000     0.857930000000    -0.00512304 
C88      C      0.150060000000     0.150230000000     0.842150000000    -0.0744139  
C89      C      0.165830000000     0.109820000000     0.857890000000    -0.0051309  
C90      C      0.141820000000     0.085830000000     0.888610000000    -0.00505723 
C91      C      0.101470000000     0.101660000000     0.904390000000    -0.0744352  
C92      C      0.085700000000     0.142060000000     0.888650000000    -0.00508429 
C93      C      0.086380000000     0.359120000000     0.606920000000    -0.00413911 
C94      C      0.102900000000     0.398790000000     0.590160000000    -0.0755543  
C95      C      0.142550000000     0.415350000000     0.606910000000    -0.00411675 
C96      C      0.165150000000     0.392760000000     0.639630000000    -0.00413047 
C97      C      0.148620000000     0.353090000000     0.656380000000    -0.0755681  
C98      C      0.108980000000     0.336540000000     0.639630000000    -0.00408257 
C99      C      0.415150000000     0.142760000000     0.606920000000    -0.004091   
C100     C      0.398630000000     0.103090000000     0.590160000000    -0.0756369  
C101     C      0.358980000000     0.086540000000     0.606910000000    -0.0040916  
C102     C      0.336380000000     0.109130000000     0.639620000000    -0.00408368 
C103     C      0.352900000000     0.148790000000     0.656380000000    -0.0756311  
C104     C      0.392550000000     0.165350000000     0.639630000000    -0.004114   
C105     C      0.415840000000     0.359830000000     0.888640000000    -0.00509064 
C106     C      0.400060000000     0.400230000000     0.904390000000    -0.0744853  
C107     C      0.359700000000     0.416050000000     0.888620000000    -0.00503514 
C108     C      0.335690000000     0.392050000000     0.857900000000    -0.00510479 
C109     C      0.351470000000     0.351660000000     0.842150000000    -0.0744033  
C110     C      0.391830000000     0.335840000000     0.857920000000    -0.00506789 
C111     C      0.359700000000     0.085840000000     0.888630000000    -0.00508011 
C112     C      0.400060000000     0.101660000000     0.904390000000    -0.0744097  
C113     C      0.415840000000     0.142050000000     0.888640000000    -0.00511203 
C114     C      0.391830000000     0.166050000000     0.857920000000    -0.00503074 
C115     C      0.351470000000     0.150230000000     0.842150000000    -0.074488   
C116     C      0.335690000000     0.109830000000     0.857910000000    -0.00509165 
C117     C      0.109700000000     0.335840000000     0.857920000000    -0.00507822 
C118     C      0.150060000000     0.351660000000     0.842150000000    -0.0743987  
C119     C      0.165830000000     0.392050000000     0.857900000000    -0.0050572  
C120     C      0.141830000000     0.416050000000     0.888620000000    -0.0050829  
C121     C      0.101470000000     0.400230000000     0.904390000000    -0.0744773  
C122     C      0.085690000000     0.359830000000     0.888640000000    -0.00508605 
C123     C      0.336380000000     0.392750000000     0.639620000000    -0.00403741 
C124     C      0.352900000000     0.353090000000     0.656380000000    -0.0756258  
C125     C      0.392550000000     0.336540000000     0.639630000000    -0.00408415 
C126     C      0.415150000000     0.359130000000     0.606920000000    -0.00408626 
C127     C      0.398630000000     0.398790000000     0.590160000000    -0.0755977  
C128     C      0.358970000000     0.415340000000     0.606910000000    -0.00414719 
C129     C      0.425120000000     0.925280000000     0.437630000000     0.337855   
C130     C      0.076410000000     0.576600000000     0.437630000000     0.337728   
C131     C      0.425120000000     0.576600000000     0.437630000000     0.33774    
C132     C      0.076410000000     0.925280000000     0.437630000000     0.337838   
C133     C      0.078430000000     0.923270000000     0.056190000000     0.343772   
C134     C      0.423100000000     0.578610000000     0.056190000000     0.343938   
C135     C      0.423100000000     0.923270000000     0.056190000000     0.34382    
C136     C      0.078430000000     0.578610000000     0.056190000000     0.343896   
C137     C      0.328430000000     0.828610000000     0.190350000000     0.343999   
C138     C      0.173100000000     0.673270000000     0.190350000000     0.343861   
C139     C      0.328430000000     0.673270000000     0.190350000000     0.343882   
C140     C      0.173100000000     0.828610000000     0.190350000000     0.34401    
C141     C      0.175120000000     0.826600000000     0.308910000000     0.337709   
C142     C      0.326410000000     0.675280000000     0.308910000000     0.337908   
C143     C      0.326410000000     0.826600000000     0.308910000000     0.337787   
C144     C      0.175120000000     0.675280000000     0.308910000000     0.337817   
C145     C      0.086380000000     0.642760000000     0.106910000000    -0.00412003 
C146     C      0.102910000000     0.603090000000     0.090160000000    -0.0755056  
C147     C      0.142550000000     0.586530000000     0.106920000000    -0.00411428 
C148     C      0.165150000000     0.609120000000     0.139630000000    -0.0041103  
C149     C      0.148620000000     0.648790000000     0.156390000000    -0.0755584  
C150     C      0.108980000000     0.665350000000     0.139620000000    -0.00410476 
C151     C      0.109700000000     0.666050000000     0.357930000000    -0.00503988 
C152     C      0.150060000000     0.650230000000     0.342140000000    -0.0744831  
C153     C      0.165830000000     0.609820000000     0.357890000000    -0.00508173 
C154     C      0.141820000000     0.585830000000     0.388610000000    -0.00505618 
C155     C      0.101470000000     0.601660000000     0.404390000000    -0.0744023  
C156     C      0.085700000000     0.642060000000     0.388650000000    -0.00510932 
C157     C      0.086380000000     0.859120000000     0.106920000000    -0.00416966 
C158     C      0.102900000000     0.898790000000     0.090160000000    -0.0754607  
C159     C      0.142550000000     0.915350000000     0.106910000000    -0.00413699 
C160     C      0.165150000000     0.892760000000     0.139620000000    -0.00406977 
C161     C      0.148620000000     0.853090000000     0.156390000000    -0.0756307  
C162     C      0.108980000000     0.836540000000     0.139630000000    -0.00402705 
C163     C      0.415150000000     0.642760000000     0.106920000000    -0.00410404 
C164     C      0.398630000000     0.603090000000     0.090160000000    -0.075539   
C165     C      0.358980000000     0.586540000000     0.106910000000    -0.00410745 
C166     C      0.336380000000     0.609130000000     0.139620000000    -0.00406537 
C167     C      0.352900000000     0.648790000000     0.156390000000    -0.0755962  
C168     C      0.392550000000     0.665350000000     0.139630000000    -0.00410543 
C169     C      0.415840000000     0.859830000000     0.388640000000    -0.00509916 
C170     C      0.400060000000     0.900230000000     0.404390000000    -0.0744497  
C171     C      0.359700000000     0.916050000000     0.388620000000    -0.00503569 
C172     C      0.335690000000     0.892050000000     0.357900000000    -0.00506193 
C173     C      0.351470000000     0.851660000000     0.342140000000    -0.0744521  
C174     C      0.391830000000     0.835840000000     0.357920000000    -0.00502818 
C175     C      0.359700000000     0.585840000000     0.388620000000    -0.00507018 
C176     C      0.400060000000     0.601660000000     0.404390000000    -0.0743879  
C177     C      0.415840000000     0.642050000000     0.388640000000    -0.00510918 
C178     C      0.391830000000     0.666050000000     0.357920000000    -0.00499816 
C179     C      0.351470000000     0.650230000000     0.342140000000    -0.074529   
C180     C      0.335690000000     0.609830000000     0.357900000000    -0.00505857 
C181     C      0.109700000000     0.835840000000     0.357920000000    -0.00504127 
C182     C      0.150060000000     0.851660000000     0.342140000000    -0.0744459  
C183     C      0.165830000000     0.892050000000     0.357900000000    -0.00501587 
C184     C      0.141830000000     0.916050000000     0.388620000000    -0.00508105 
C185     C      0.101470000000     0.900230000000     0.404390000000    -0.0744467  
C186     C      0.085690000000     0.859830000000     0.388640000000    -0.00508739 
C187     C      0.336380000000     0.892750000000     0.139620000000    -0.00399248 
C188     C      0.352900000000     0.853090000000     0.156380000000    -0.0756377  
C189     C      0.392550000000     0.836540000000     0.139630000000    -0.00404431 
C190     C      0.415150000000     0.859130000000     0.106920000000    -0.00412367 
C191     C      0.398630000000     0.898790000000     0.090160000000    -0.075463   
C192     C      0.358970000000     0.915340000000     0.106910000000    -0.00418458 
C193     C      0.425120000000     0.925280000000     0.937630000000     0.337808   
C194     C      0.076410000000     0.576600000000     0.937630000000     0.33768    
C195     C      0.425120000000     0.576600000000     0.937630000000     0.337693   
C196     C      0.076410000000     0.925280000000     0.937630000000     0.337791   
C197     C      0.078430000000     0.923270000000     0.556190000000     0.343876   
C198     C      0.423100000000     0.578610000000     0.556190000000     0.344043   
C199     C      0.423100000000     0.923270000000     0.556190000000     0.343887   
C200     C      0.078430000000     0.578610000000     0.556190000000     0.344001   
C201     C      0.328430000000     0.828610000000     0.690350000000     0.343992   
C202     C      0.173100000000     0.673270000000     0.690350000000     0.343812   
C203     C      0.328430000000     0.673270000000     0.690350000000     0.343834   
C204     C      0.173100000000     0.828610000000     0.690350000000     0.343961   
C205     C      0.175120000000     0.826600000000     0.808910000000     0.337667   
C206     C      0.326410000000     0.675280000000     0.808910000000     0.337867   
C207     C      0.326410000000     0.826600000000     0.808910000000     0.337745   
C208     C      0.175120000000     0.675280000000     0.808910000000     0.337775   
C209     C      0.086380000000     0.642760000000     0.606910000000    -0.00408733 
C210     C      0.102910000000     0.603090000000     0.590160000000    -0.0755905  
C211     C      0.142550000000     0.586530000000     0.606920000000    -0.00408534 
C212     C      0.165150000000     0.609120000000     0.639630000000    -0.00416317 
C213     C      0.148620000000     0.648790000000     0.656380000000    -0.0754924  
C214     C      0.108980000000     0.665350000000     0.639630000000    -0.00416155 
C215     C      0.109700000000     0.666050000000     0.857930000000    -0.00507165 
C216     C      0.150060000000     0.650230000000     0.842150000000    -0.0744366  
C217     C      0.165830000000     0.609820000000     0.857890000000    -0.00511237 
C218     C      0.141820000000     0.585830000000     0.888610000000    -0.00506438 
C219     C      0.101470000000     0.601660000000     0.904390000000    -0.0744144  
C220     C      0.085700000000     0.642060000000     0.888650000000    -0.00511201 
C221     C      0.086380000000     0.859120000000     0.606920000000    -0.00414004 
C222     C      0.102900000000     0.898790000000     0.590160000000    -0.0755413  
C223     C      0.142550000000     0.915350000000     0.606910000000    -0.00411493 
C224     C      0.165150000000     0.892760000000     0.639630000000    -0.00412311 
C225     C      0.148620000000     0.853090000000     0.656380000000    -0.0755659  
C226     C      0.108980000000     0.836540000000     0.639630000000    -0.00407926 
C227     C      0.415150000000     0.642760000000     0.606920000000    -0.00407287 
C228     C      0.398630000000     0.603090000000     0.590160000000    -0.0756233  
C229     C      0.358980000000     0.586540000000     0.606910000000    -0.00407923 
C230     C      0.336380000000     0.609130000000     0.639620000000    -0.00411696 
C231     C      0.352900000000     0.648790000000     0.656380000000    -0.0755329  
C232     C      0.392550000000     0.665350000000     0.639630000000    -0.00415772 
C233     C      0.415840000000     0.859830000000     0.888640000000    -0.00509249 
C234     C      0.400060000000     0.900230000000     0.904390000000    -0.0744719  
C235     C      0.359700000000     0.916050000000     0.888620000000    -0.00503434 
C236     C      0.335690000000     0.892050000000     0.857900000000    -0.00509679 
C237     C      0.351470000000     0.851660000000     0.842150000000    -0.0744028  
C238     C      0.391830000000     0.835840000000     0.857920000000    -0.00506417 
C239     C      0.359700000000     0.585840000000     0.888630000000    -0.0050765  
C240     C      0.400060000000     0.601660000000     0.904390000000    -0.0744015  
C241     C      0.415840000000     0.642050000000     0.888640000000    -0.00511179 
C242     C      0.391830000000     0.666050000000     0.857920000000    -0.00502938 
C243     C      0.351470000000     0.650230000000     0.842150000000    -0.0744846  
C244     C      0.335690000000     0.609830000000     0.857910000000    -0.00508627 
C245     C      0.109700000000     0.835840000000     0.857920000000    -0.00507449 
C246     C      0.150060000000     0.851660000000     0.842150000000    -0.0743982  
C247     C      0.165830000000     0.892050000000     0.857900000000    -0.00504914 
C248     C      0.141830000000     0.916050000000     0.888620000000    -0.00508212 
C249     C      0.101470000000     0.900230000000     0.904390000000    -0.0744633  
C250     C      0.085690000000     0.859830000000     0.888640000000    -0.00508798 
C251     C      0.336380000000     0.892750000000     0.639620000000    -0.00401545 
C252     C      0.352900000000     0.853090000000     0.656380000000    -0.0756339  
C253     C      0.392550000000     0.836540000000     0.639630000000    -0.00406728 
C254     C      0.415150000000     0.859130000000     0.606920000000    -0.00411296 
C255     C      0.398630000000     0.898790000000     0.590160000000    -0.0755292  
C256     C      0.358970000000     0.915340000000     0.606910000000    -0.00417405 
C257     C      0.925120000000     0.425280000000     0.437630000000     0.337856   
C258     C      0.576410000000     0.076600000000     0.437630000000     0.337868   
C259     C      0.925120000000     0.076600000000     0.437630000000     0.337729   
C260     C      0.576410000000     0.425280000000     0.437630000000     0.337853   
C261     C      0.578430000000     0.423270000000     0.056190000000     0.343778   
C262     C      0.923100000000     0.078620000000     0.056190000000     0.343876   
C263     C      0.923100000000     0.423270000000     0.056190000000     0.343966   
C264     C      0.578430000000     0.078620000000     0.056190000000     0.343869   
C265     C      0.828430000000     0.328610000000     0.190350000000     0.343995   
C266     C      0.673100000000     0.173270000000     0.190350000000     0.344131   
C267     C      0.828430000000     0.173270000000     0.190350000000     0.34412    
C268     C      0.673100000000     0.328610000000     0.190350000000     0.344042   
C269     C      0.675120000000     0.326600000000     0.308910000000     0.337792   
C270     C      0.826410000000     0.175280000000     0.308910000000     0.337915   
C271     C      0.826410000000     0.326600000000     0.308910000000     0.337787   
C272     C      0.675120000000     0.175280000000     0.308910000000     0.337961   
C273     C      0.586380000000     0.142760000000     0.106910000000    -0.00410993 
C274     C      0.602900000000     0.103090000000     0.090160000000    -0.0755418  
C275     C      0.642550000000     0.086530000000     0.106920000000    -0.00414828 
C276     C      0.665150000000     0.109120000000     0.139630000000    -0.00402547 
C277     C      0.648630000000     0.148790000000     0.156390000000    -0.0756971  
C278     C      0.608980000000     0.165350000000     0.139620000000    -0.00406109 
C279     C      0.609710000000     0.166060000000     0.357930000000    -0.00503183 
C280     C      0.650060000000     0.150230000000     0.342140000000    -0.0745256  
C281     C      0.665830000000     0.109820000000     0.357890000000    -0.00507187 
C282     C      0.641820000000     0.085830000000     0.388610000000    -0.00504748 
C283     C      0.601470000000     0.101660000000     0.404390000000    -0.0744489  
C284     C      0.585700000000     0.142060000000     0.388650000000    -0.00508856 
C285     C      0.586380000000     0.359120000000     0.106920000000    -0.00417082 
C286     C      0.602900000000     0.398790000000     0.090160000000    -0.0754588  
C287     C      0.642550000000     0.415350000000     0.106910000000    -0.00415478 
C288     C      0.665150000000     0.392760000000     0.139620000000    -0.00404103 
C289     C      0.648630000000     0.353090000000     0.156390000000    -0.0756746  
C290     C      0.608980000000     0.336540000000     0.139630000000    -0.00401851 
C291     C      0.915150000000     0.142760000000     0.106920000000    -0.00412069 
C292     C      0.898630000000     0.103090000000     0.090160000000    -0.0755397  
C293     C      0.858980000000     0.086540000000     0.106910000000    -0.00412106 
C294     C      0.836380000000     0.109130000000     0.139620000000    -0.00402877 
C295     C      0.852900000000     0.148790000000     0.156390000000    -0.0756928  
C296     C      0.892550000000     0.165350000000     0.139630000000    -0.00405403 
C297     C      0.915840000000     0.359830000000     0.388640000000    -0.00509615 
C298     C      0.900060000000     0.400230000000     0.404390000000    -0.0744494  
C299     C      0.859700000000     0.416050000000     0.388620000000    -0.00503803 
C300     C      0.835690000000     0.392050000000     0.357900000000    -0.00506632 
C301     C      0.851470000000     0.351660000000     0.342140000000    -0.0744516  
C302     C      0.891830000000     0.335840000000     0.357920000000    -0.00502398 
C303     C      0.859700000000     0.085840000000     0.388620000000    -0.00507645 
C304     C      0.900060000000     0.101660000000     0.404390000000    -0.0743807  
C305     C      0.915840000000     0.142050000000     0.388640000000    -0.00510908 
C306     C      0.891830000000     0.166050000000     0.357920000000    -0.0049906  
C307     C      0.851470000000     0.150230000000     0.342140000000    -0.0745333  
C308     C      0.835690000000     0.109830000000     0.357900000000    -0.00505963 
C309     C      0.609700000000     0.335840000000     0.357920000000    -0.00503936 
C310     C      0.650060000000     0.351660000000     0.342140000000    -0.0744504  
C311     C      0.665840000000     0.392050000000     0.357900000000    -0.00508328 
C312     C      0.641830000000     0.416050000000     0.388620000000    -0.00504941 
C313     C      0.601470000000     0.400230000000     0.404390000000    -0.0744649  
C314     C      0.585690000000     0.359830000000     0.388640000000    -0.00507643 
C315     C      0.836380000000     0.392750000000     0.139620000000    -0.00402221 
C316     C      0.852900000000     0.353090000000     0.156380000000    -0.0756233  
C317     C      0.892550000000     0.336540000000     0.139630000000    -0.00405696 
C318     C      0.915150000000     0.359130000000     0.106920000000    -0.00409166 
C319     C      0.898630000000     0.398790000000     0.090160000000    -0.0755254  
C320     C      0.858970000000     0.415340000000     0.106910000000    -0.00413841 
C321     C      0.925120000000     0.425280000000     0.937630000000     0.337809   
C322     C      0.576410000000     0.076600000000     0.937630000000     0.337821   
C323     C      0.925120000000     0.076600000000     0.937630000000     0.337682   
C324     C      0.576410000000     0.425280000000     0.937630000000     0.337806   
C325     C      0.578430000000     0.423270000000     0.556190000000     0.343883   
C326     C      0.923100000000     0.078620000000     0.556190000000     0.343981   
C327     C      0.923100000000     0.423270000000     0.556190000000     0.344033   
C328     C      0.578430000000     0.078620000000     0.556190000000     0.343974   
C329     C      0.828430000000     0.328610000000     0.690350000000     0.343988   
C330     C      0.673100000000     0.173270000000     0.690350000000     0.344082   
C331     C      0.828430000000     0.173270000000     0.690350000000     0.344072   
C332     C      0.673100000000     0.328610000000     0.690350000000     0.343993   
C333     C      0.675120000000     0.326600000000     0.808910000000     0.33775    
C334     C      0.826410000000     0.175280000000     0.808910000000     0.337874   
C335     C      0.826410000000     0.326600000000     0.808910000000     0.337744   
C336     C      0.675120000000     0.175280000000     0.808910000000     0.33792    
C337     C      0.586380000000     0.142760000000     0.606910000000    -0.00407723 
C338     C      0.602900000000     0.103090000000     0.590160000000    -0.0756267  
C339     C      0.642550000000     0.086530000000     0.606920000000    -0.00411936 
C340     C      0.665150000000     0.109120000000     0.639630000000    -0.00407834 
C341     C      0.648630000000     0.148790000000     0.656380000000    -0.075631   
C342     C      0.608980000000     0.165350000000     0.639630000000    -0.00411786 
C343     C      0.609710000000     0.166060000000     0.857930000000    -0.00506365 
C344     C      0.650060000000     0.150230000000     0.842150000000    -0.074479   
C345     C      0.665830000000     0.109820000000     0.857890000000    -0.00510253 
C346     C      0.641820000000     0.085830000000     0.888610000000    -0.00505566 
C347     C      0.601470000000     0.101660000000     0.904390000000    -0.0744611  
C348     C      0.585700000000     0.142060000000     0.888650000000    -0.00509124 
C349     C      0.586380000000     0.359120000000     0.606920000000    -0.0041412  
C350     C      0.602900000000     0.398790000000     0.590160000000    -0.0755394  
C351     C      0.642550000000     0.415350000000     0.606910000000    -0.00413272 
C352     C      0.665150000000     0.392760000000     0.639630000000    -0.00409437 
C353     C      0.648630000000     0.353090000000     0.656380000000    -0.0756098  
C354     C      0.608980000000     0.336540000000     0.639630000000    -0.0040707  
C355     C      0.915150000000     0.142760000000     0.606920000000    -0.00408952 
C356     C      0.898630000000     0.103090000000     0.590160000000    -0.0756239  
C357     C      0.858980000000     0.086540000000     0.606910000000    -0.00409284 
C358     C      0.836380000000     0.109130000000     0.639620000000    -0.00408036 
C359     C      0.852900000000     0.148790000000     0.656380000000    -0.0756294  
C360     C      0.892550000000     0.165350000000     0.639630000000    -0.00410632 
C361     C      0.915840000000     0.359830000000     0.888640000000    -0.00508947 
C362     C      0.900060000000     0.400230000000     0.904390000000    -0.0744716  
C363     C      0.859700000000     0.416050000000     0.888620000000    -0.00503667 
C364     C      0.835690000000     0.392050000000     0.857900000000    -0.00510118 
C365     C      0.851470000000     0.351660000000     0.842150000000    -0.0744022  
C366     C      0.891830000000     0.335840000000     0.857920000000    -0.00505997 
C367     C      0.859700000000     0.085840000000     0.888630000000    -0.00508276 
C368     C      0.900060000000     0.101660000000     0.904390000000    -0.0743943  
C369     C      0.915840000000     0.142050000000     0.888640000000    -0.00511169 
C370     C      0.891830000000     0.166050000000     0.857920000000    -0.00502182 
C371     C      0.851470000000     0.150230000000     0.842150000000    -0.0744888  
C372     C      0.835690000000     0.109830000000     0.857910000000    -0.00508734 
C373     C      0.609700000000     0.335840000000     0.857920000000    -0.00507261 
C374     C      0.650060000000     0.351660000000     0.842150000000    -0.0744026  
C375     C      0.665840000000     0.392050000000     0.857900000000    -0.00511658 
C376     C      0.641830000000     0.416050000000     0.888620000000    -0.00505047 
C377     C      0.601470000000     0.400230000000     0.904390000000    -0.0744815  
C378     C      0.585690000000     0.359830000000     0.888640000000    -0.00507701 
C379     C      0.836380000000     0.392750000000     0.639620000000    -0.00404518 
C380     C      0.852900000000     0.353090000000     0.656380000000    -0.0756195  
C381     C      0.892550000000     0.336540000000     0.639630000000    -0.00407994 
C382     C      0.915150000000     0.359130000000     0.606920000000    -0.00408093 
C383     C      0.898630000000     0.398790000000     0.590160000000    -0.0755917  
C384     C      0.858970000000     0.415340000000     0.606910000000    -0.00412786 
C385     C      0.925120000000     0.925280000000     0.437630000000     0.337848   
C386     C      0.576410000000     0.576600000000     0.437630000000     0.337867   
C387     C      0.925120000000     0.576600000000     0.437630000000     0.337731   
C388     C      0.576410000000     0.925280000000     0.437630000000     0.337845   
C389     C      0.578430000000     0.923270000000     0.056190000000     0.343772   
C390     C      0.923100000000     0.578610000000     0.056190000000     0.343931   
C391     C      0.923100000000     0.923270000000     0.056190000000     0.343816   
C392     C      0.578430000000     0.578610000000     0.056190000000     0.343925   
C393     C      0.828430000000     0.828610000000     0.190350000000     0.343999   
C394     C      0.673100000000     0.673270000000     0.190350000000     0.34389    
C395     C      0.828430000000     0.673270000000     0.190350000000     0.343882   
C396     C      0.673100000000     0.828610000000     0.190350000000     0.344042   
C397     C      0.675120000000     0.826600000000     0.308910000000     0.337794   
C398     C      0.826410000000     0.675280000000     0.308910000000     0.337911   
C399     C      0.826410000000     0.826600000000     0.308910000000     0.337788   
C400     C      0.675120000000     0.675280000000     0.308910000000     0.337966   
C401     C      0.586380000000     0.642760000000     0.106910000000    -0.00408841 
C402     C      0.602900000000     0.603090000000     0.090160000000    -0.0755322  
C403     C      0.642550000000     0.586530000000     0.106920000000    -0.00412465 
C404     C      0.665150000000     0.609120000000     0.139630000000    -0.00407932 
C405     C      0.648630000000     0.648790000000     0.156390000000    -0.0755914  
C406     C      0.608980000000     0.665350000000     0.139620000000    -0.00410868 
C407     C      0.609710000000     0.666050000000     0.357930000000    -0.00498047 
C408     C      0.650060000000     0.650230000000     0.342140000000    -0.0745482  
C409     C      0.665830000000     0.609820000000     0.357890000000    -0.00505335 
C410     C      0.641820000000     0.585830000000     0.388610000000    -0.00505462 
C411     C      0.601470000000     0.601660000000     0.404390000000    -0.0744281  
C412     C      0.585700000000     0.642060000000     0.388650000000    -0.00511628 
C413     C      0.586380000000     0.859120000000     0.106920000000    -0.00417174 
C414     C      0.602900000000     0.898790000000     0.090160000000    -0.0754458  
C415     C      0.642550000000     0.915350000000     0.106910000000    -0.00415295 
C416     C      0.665150000000     0.892760000000     0.139620000000    -0.00403368 
C417     C      0.648630000000     0.853090000000     0.156390000000    -0.0756724  
C418     C      0.608980000000     0.836540000000     0.139630000000    -0.00401521 
C419     C      0.915150000000     0.642760000000     0.106920000000    -0.00410256 
C420     C      0.898630000000     0.603090000000     0.090160000000    -0.0755261  
C421     C      0.858980000000     0.586540000000     0.106910000000    -0.00410868 
C422     C      0.836380000000     0.609130000000     0.139620000000    -0.00406207 
C423     C      0.852900000000     0.648790000000     0.156390000000    -0.0755945  
C424     C      0.892550000000     0.665350000000     0.139630000000    -0.00409776 
C425     C      0.915840000000     0.859830000000     0.388640000000    -0.005098   
C426     C      0.900060000000     0.900230000000     0.404390000000    -0.074436   
C427     C      0.859700000000     0.916050000000     0.388620000000    -0.00503723 
C428     C      0.835690000000     0.892050000000     0.357900000000    -0.00505833 
C429     C      0.851470000000     0.851660000000     0.342140000000    -0.0744511  
C430     C      0.891830000000     0.835840000000     0.357920000000    -0.00502027 
C431     C      0.859700000000     0.585840000000     0.388620000000    -0.00507283 
C432     C      0.900060000000     0.601660000000     0.404390000000    -0.0743725  
C433     C      0.915840000000     0.642050000000     0.388640000000    -0.00510885 
C434     C      0.891830000000     0.666050000000     0.357920000000    -0.00498925 
C435     C      0.851470000000     0.650230000000     0.342140000000    -0.0745298  
C436     C      0.835690000000     0.609830000000     0.357900000000    -0.00505426 
C437     C      0.609700000000     0.835840000000     0.357920000000    -0.00503564 
C438     C      0.650060000000     0.851660000000     0.342140000000    -0.0744499  
C439     C      0.665840000000     0.892050000000     0.357900000000    -0.00507523 
C440     C      0.641830000000     0.916050000000     0.388620000000    -0.00504863 
C441     C      0.601470000000     0.900230000000     0.404390000000    -0.0744509  
C442     C      0.585690000000     0.859830000000     0.388640000000    -0.00507835 
C443     C      0.836380000000     0.892750000000     0.139620000000    -0.00400026 
C444     C      0.852900000000     0.853090000000     0.156380000000    -0.0756314  
C445     C      0.892550000000     0.836540000000     0.139630000000    -0.0040401  
C446     C      0.915150000000     0.859130000000     0.106920000000    -0.00411833 
C447     C      0.898630000000     0.898790000000     0.090160000000    -0.075457   
C448     C      0.858970000000     0.915340000000     0.106910000000    -0.00416524 
C449     C      0.925120000000     0.925280000000     0.937630000000     0.337801   
C450     C      0.576410000000     0.576600000000     0.937630000000     0.33782    
C451     C      0.925120000000     0.576600000000     0.937630000000     0.337684   
C452     C      0.576410000000     0.925280000000     0.937630000000     0.337798   
C453     C      0.578430000000     0.923270000000     0.556190000000     0.343877   
C454     C      0.923100000000     0.578610000000     0.556190000000     0.344036   
C455     C      0.923100000000     0.923270000000     0.556190000000     0.343883   
C456     C      0.578430000000     0.578610000000     0.556190000000     0.34403    
C457     C      0.828430000000     0.828610000000     0.690350000000     0.343992   
C458     C      0.673100000000     0.673270000000     0.690350000000     0.343841   
C459     C      0.828430000000     0.673270000000     0.690350000000     0.343834   
C460     C      0.673100000000     0.828610000000     0.690350000000     0.343993   
C461     C      0.675120000000     0.826600000000     0.808910000000     0.337752   
C462     C      0.826410000000     0.675280000000     0.808910000000     0.33787    
C463     C      0.826410000000     0.826600000000     0.808910000000     0.337746   
C464     C      0.675120000000     0.675280000000     0.808910000000     0.337925   
C465     C      0.586380000000     0.642760000000     0.606910000000    -0.00405573 
C466     C      0.602900000000     0.603090000000     0.590160000000    -0.0756171  
C467     C      0.642550000000     0.586530000000     0.606920000000    -0.00409573 
C468     C      0.665150000000     0.609120000000     0.639630000000    -0.00413218 
C469     C      0.648630000000     0.648790000000     0.656380000000    -0.0755254  
C470     C      0.608980000000     0.665350000000     0.639630000000    -0.00416544 
C471     C      0.609710000000     0.666050000000     0.857930000000    -0.00501226 
C472     C      0.650060000000     0.650230000000     0.842150000000    -0.0745017  
C473     C      0.665830000000     0.609820000000     0.857890000000    -0.00508399 
C474     C      0.641820000000     0.585830000000     0.888610000000    -0.00506281 
C475     C      0.601470000000     0.601660000000     0.904390000000    -0.0744403  
C476     C      0.585700000000     0.642060000000     0.888650000000    -0.00511896 
C477     C      0.586380000000     0.859120000000     0.606920000000    -0.00414213 
C478     C      0.602900000000     0.898790000000     0.590160000000    -0.0755264  
C479     C      0.642550000000     0.915350000000     0.606910000000    -0.0041309  
C480     C      0.665150000000     0.892760000000     0.639630000000    -0.00408701 
C481     C      0.648630000000     0.853090000000     0.656380000000    -0.0756076  
C482     C      0.608980000000     0.836540000000     0.639630000000    -0.00406739 
C483     C      0.915150000000     0.642760000000     0.606920000000    -0.00407139 
C484     C      0.898630000000     0.603090000000     0.590160000000    -0.0756104  
C485     C      0.858980000000     0.586540000000     0.606910000000    -0.00408046 
C486     C      0.836380000000     0.609130000000     0.639620000000    -0.00411365 
C487     C      0.852900000000     0.648790000000     0.656380000000    -0.0755312  
C488     C      0.892550000000     0.665350000000     0.639630000000    -0.00415004 
C489     C      0.915840000000     0.859830000000     0.888640000000    -0.00509132 
C490     C      0.900060000000     0.900230000000     0.904390000000    -0.0744582  
C491     C      0.859700000000     0.916050000000     0.888620000000    -0.00503587 
C492     C      0.835690000000     0.892050000000     0.857900000000    -0.00509319 
C493     C      0.851470000000     0.851660000000     0.842150000000    -0.0744017  
C494     C      0.891830000000     0.835840000000     0.857920000000    -0.00505625 
C495     C      0.859700000000     0.585840000000     0.888630000000    -0.00507915 
C496     C      0.900060000000     0.601660000000     0.904390000000    -0.0743861  
C497     C      0.915840000000     0.642050000000     0.888640000000    -0.00511146 
C498     C      0.891830000000     0.666050000000     0.857920000000    -0.00502046 
C499     C      0.851470000000     0.650230000000     0.842150000000    -0.0744854  
C500     C      0.835690000000     0.609830000000     0.857910000000    -0.00508196 
C501     C      0.609700000000     0.835840000000     0.857920000000    -0.00506888 
C502     C      0.650060000000     0.851660000000     0.842150000000    -0.0744021  
C503     C      0.665840000000     0.892050000000     0.857900000000    -0.00510853 
C504     C      0.641830000000     0.916050000000     0.888620000000    -0.00504968 
C505     C      0.601470000000     0.900230000000     0.904390000000    -0.0744676  
C506     C      0.585690000000     0.859830000000     0.888640000000    -0.00507893 
C507     C      0.836380000000     0.892750000000     0.639620000000    -0.00402322 
C508     C      0.852900000000     0.853090000000     0.656380000000    -0.0756277  
C509     C      0.892550000000     0.836540000000     0.639630000000    -0.00406307 
C510     C      0.915150000000     0.859130000000     0.606920000000    -0.00410762 
C511     C      0.898630000000     0.898790000000     0.590160000000    -0.0755232  
C512     C      0.858970000000     0.915340000000     0.606910000000    -0.00415471 
Co1      Co     0.000760000000     0.435840000000     0.498500000000     0.835071   
Co2      Co     0.500760000000     0.066040000000     0.998500000000     0.834667   
Co3      Co     0.435700000000     0.500940000000     0.498490000000     0.835563   
Co4      Co     0.065830000000     0.500940000000     0.998490000000     0.834991   
Co5      Co     0.250760000000     0.316040000000     0.248050000000     0.835206   
Co6      Co     0.250760000000     0.185840000000     0.248050000000     0.835348   
Co7      Co     0.315830000000     0.250940000000     0.248050000000     0.835536   
Co8      Co     0.185700000000     0.250940000000     0.248050000000     0.8355     
Co9      Co     0.000760000000     0.435840000000     0.998500000000     0.834534   
Co10     Co     0.500760000000     0.066040000000     0.498500000000     0.835164   
Co11     Co     0.435700000000     0.500940000000     0.998490000000     0.834975   
Co12     Co     0.065830000000     0.500940000000     0.498490000000     0.835577   
Co13     Co     0.250760000000     0.316040000000     0.748050000000     0.8352     
Co14     Co     0.250760000000     0.185840000000     0.748050000000     0.835341   
Co15     Co     0.315830000000     0.250940000000     0.748050000000     0.835531   
Co16     Co     0.185700000000     0.250940000000     0.748050000000     0.835493   
Co17     Co     0.000760000000     0.935840000000     0.498500000000     0.835178   
Co18     Co     0.500760000000     0.566040000000     0.998500000000     0.834639   
Co19     Co     0.435700000000     0.000940000000     0.498490000000     0.835407   
Co20     Co     0.065830000000     0.000940000000     0.998490000000     0.834816   
Co21     Co     0.250760000000     0.816040000000     0.248050000000     0.835204   
Co22     Co     0.250760000000     0.685840000000     0.248050000000     0.835242   
Co23     Co     0.315830000000     0.750940000000     0.248050000000     0.835551   
Co24     Co     0.185700000000     0.750940000000     0.248050000000     0.835516   
Co25     Co     0.000760000000     0.935840000000     0.998500000000     0.834642   
Co26     Co     0.500760000000     0.566040000000     0.498500000000     0.835135   
Co27     Co     0.435700000000     0.000940000000     0.998490000000     0.834819   
Co28     Co     0.065830000000     0.000940000000     0.498490000000     0.835401   
Co29     Co     0.250760000000     0.816040000000     0.748050000000     0.835199   
Co30     Co     0.250760000000     0.685840000000     0.748050000000     0.835235   
Co31     Co     0.315830000000     0.750940000000     0.748050000000     0.835546   
Co32     Co     0.185700000000     0.750940000000     0.748050000000     0.835509   
Co33     Co     0.500760000000     0.435840000000     0.498500000000     0.835234   
Co34     Co     0.000760000000     0.066040000000     0.998500000000     0.834522   
Co35     Co     0.935700000000     0.500940000000     0.498490000000     0.835676   
Co36     Co     0.565830000000     0.500940000000     0.998490000000     0.834983   
Co37     Co     0.750760000000     0.316040000000     0.248050000000     0.835213   
Co38     Co     0.750760000000     0.185840000000     0.248050000000     0.835326   
Co39     Co     0.815830000000     0.250940000000     0.248050000000     0.83554    
Co40     Co     0.685700000000     0.250940000000     0.248050000000     0.835557   
Co41     Co     0.500760000000     0.435840000000     0.998500000000     0.834698   
Co42     Co     0.000760000000     0.066040000000     0.498500000000     0.835018   
Co43     Co     0.935700000000     0.500940000000     0.998490000000     0.835088   
Co44     Co     0.565830000000     0.500940000000     0.498490000000     0.835569   
Co45     Co     0.750760000000     0.316040000000     0.748050000000     0.835208   
Co46     Co     0.750760000000     0.185840000000     0.748050000000     0.835319   
Co47     Co     0.815830000000     0.250940000000     0.748050000000     0.835534   
Co48     Co     0.685700000000     0.250940000000     0.748050000000     0.83555    
Co49     Co     0.500760000000     0.935840000000     0.498500000000     0.835341   
Co50     Co     0.000760000000     0.566040000000     0.998500000000     0.834493   
Co51     Co     0.935700000000     0.000940000000     0.498490000000     0.83552    
Co52     Co     0.565830000000     0.000940000000     0.998490000000     0.834808   
Co53     Co     0.750760000000     0.816040000000     0.248050000000     0.835211   
Co54     Co     0.750760000000     0.685840000000     0.248050000000     0.83522    
Co55     Co     0.815830000000     0.750940000000     0.248050000000     0.835555   
Co56     Co     0.685700000000     0.750940000000     0.248050000000     0.835572   
Co57     Co     0.500760000000     0.935840000000     0.998500000000     0.834805   
Co58     Co     0.000760000000     0.566040000000     0.498500000000     0.83499    
Co59     Co     0.935700000000     0.000940000000     0.998490000000     0.834933   
Co60     Co     0.565830000000     0.000940000000     0.498490000000     0.835394   
Co61     Co     0.750760000000     0.816040000000     0.748050000000     0.835206   
Co62     Co     0.750760000000     0.685840000000     0.748050000000     0.835213   
Co63     Co     0.815830000000     0.750940000000     0.748050000000     0.83555    
Co64     Co     0.685700000000     0.750940000000     0.748050000000     0.835565   
H1       H      0.055870000000     0.156420000000     0.094880000000     0.0510248  
H2       H      0.156180000000     0.056000000000     0.094890000000     0.0510313  
H3       H      0.195660000000     0.095460000000     0.151660000000     0.0509926  
H4       H      0.095350000000     0.195880000000     0.151650000000     0.0510038  
H5       H      0.096500000000     0.197010000000     0.346530000000     0.050998   
H6       H      0.196740000000     0.096570000000     0.346450000000     0.050996   
H7       H      0.155030000000     0.054870000000     0.400020000000     0.0509682  
H8       H      0.054790000000     0.155310000000     0.400090000000     0.0509779  
H9       H      0.055870000000     0.345470000000     0.094890000000     0.0510387  
H10      H      0.156190000000     0.445880000000     0.094880000000     0.0510498  
H11      H      0.195660000000     0.406410000000     0.151650000000     0.0510175  
H12      H      0.095340000000     0.306010000000     0.151660000000     0.0509941  
H13      H      0.445660000000     0.156410000000     0.094890000000     0.0510466  
H14      H      0.345340000000     0.056010000000     0.094880000000     0.0510248  
H15      H      0.305870000000     0.095470000000     0.151650000000     0.0509873  
H16      H      0.406190000000     0.195870000000     0.151660000000     0.0510168  
H17      H      0.446760000000     0.346590000000     0.400060000000     0.0510007  
H18      H      0.346480000000     0.447000000000     0.400040000000     0.0509895  
H19      H      0.304770000000     0.405300000000     0.346480000000     0.0509951  
H20      H      0.405050000000     0.304890000000     0.346500000000     0.0509876  
H21      H      0.346480000000     0.054890000000     0.400040000000     0.050975   
H22      H      0.446760000000     0.155300000000     0.400060000000     0.0510017  
H23      H      0.405050000000     0.197000000000     0.346500000000     0.0509801  
H24      H      0.304770000000     0.096590000000     0.346480000000     0.0509838  
H25      H      0.096490000000     0.304880000000     0.346510000000     0.0509831  
H26      H      0.196760000000     0.405300000000     0.346470000000     0.0509814  
H27      H      0.155040000000     0.447000000000     0.400030000000     0.0510012  
H28      H      0.054770000000     0.346580000000     0.400070000000     0.0509712  
H29      H      0.305860000000     0.406410000000     0.151640000000     0.0509943  
H30      H      0.406190000000     0.306010000000     0.151670000000     0.0510153  
H31      H      0.445670000000     0.345480000000     0.094900000000     0.0510429  
H32      H      0.345340000000     0.445870000000     0.094880000000     0.0510581  
H33      H      0.055870000000     0.156420000000     0.594880000000     0.0509903  
H34      H      0.156180000000     0.056000000000     0.594890000000     0.0509938  
H35      H      0.195660000000     0.095460000000     0.651660000000     0.0509935  
H36      H      0.095350000000     0.195880000000     0.651650000000     0.0510066  
H37      H      0.096500000000     0.197010000000     0.846530000000     0.0509952  
H38      H      0.196740000000     0.096570000000     0.846450000000     0.0509923  
H39      H      0.155030000000     0.054870000000     0.900010000000     0.0509431  
H40      H      0.054790000000     0.155310000000     0.900090000000     0.0509542  
H41      H      0.055870000000     0.345470000000     0.594890000000     0.0510042  
H42      H      0.156190000000     0.445880000000     0.594890000000     0.0510119  
H43      H      0.195660000000     0.406410000000     0.651650000000     0.051019   
H44      H      0.095340000000     0.306010000000     0.651660000000     0.050995   
H45      H      0.445660000000     0.156410000000     0.594890000000     0.0510126  
H46      H      0.345340000000     0.056010000000     0.594880000000     0.0509872  
H47      H      0.305870000000     0.095470000000     0.651650000000     0.050988   
H48      H      0.406190000000     0.195870000000     0.651660000000     0.0510181  
H49      H      0.446760000000     0.346590000000     0.900070000000     0.0509762  
H50      H      0.346480000000     0.447000000000     0.900040000000     0.050964   
H51      H      0.304770000000     0.405300000000     0.846480000000     0.0509929  
H52      H      0.405050000000     0.304890000000     0.846500000000     0.0509863  
H53      H      0.346480000000     0.054890000000     0.900040000000     0.0509522  
H54      H      0.446760000000     0.155300000000     0.900060000000     0.050978   
H55      H      0.405050000000     0.197000000000     0.846500000000     0.0509771  
H56      H      0.304770000000     0.096590000000     0.846480000000     0.0509792  
H57      H      0.096490000000     0.304880000000     0.846510000000     0.0509807  
H58      H      0.196760000000     0.405300000000     0.846470000000     0.0509787  
H59      H      0.155040000000     0.447000000000     0.900030000000     0.0509764  
H60      H      0.054770000000     0.346580000000     0.900070000000     0.0509467  
H61      H      0.305860000000     0.406410000000     0.651640000000     0.0509891  
H62      H      0.406190000000     0.306010000000     0.651670000000     0.0510102  
H63      H      0.445670000000     0.345480000000     0.594900000000     0.0510108  
H64      H      0.345340000000     0.445870000000     0.594880000000     0.0510255  
H65      H      0.055870000000     0.656420000000     0.094880000000     0.051022   
H66      H      0.156180000000     0.556000000000     0.094890000000     0.0510482  
H67      H      0.195660000000     0.595470000000     0.151660000000     0.0510293  
H68      H      0.095350000000     0.695880000000     0.151650000000     0.0510171  
H69      H      0.096500000000     0.697010000000     0.346530000000     0.0509813  
H70      H      0.196740000000     0.596570000000     0.346450000000     0.0510035  
H71      H      0.155030000000     0.554870000000     0.400020000000     0.0509926  
H72      H      0.054790000000     0.655310000000     0.400090000000     0.0509857  
H73      H      0.055870000000     0.845470000000     0.094890000000     0.0510403  
H74      H      0.156190000000     0.945880000000     0.094880000000     0.0510723  
H75      H      0.195660000000     0.906410000000     0.151650000000     0.0510281  
H76      H      0.095340000000     0.806010000000     0.151660000000     0.0509949  
H77      H      0.445660000000     0.656410000000     0.094890000000     0.0510447  
H78      H      0.345340000000     0.556010000000     0.094880000000     0.0510431  
H79      H      0.305870000000     0.595470000000     0.151650000000     0.051013   
H80      H      0.406190000000     0.695870000000     0.151660000000     0.0510291  
H81      H      0.446760000000     0.846590000000     0.400060000000     0.0510024  
H82      H      0.346480000000     0.947000000000     0.400040000000     0.0510128  
H83      H      0.304770000000     0.905300000000     0.346480000000     0.0510052  
H84      H      0.405050000000     0.804890000000     0.346500000000     0.0509876  
H85      H      0.346480000000     0.554890000000     0.400040000000     0.0509968  
H86      H      0.446760000000     0.655300000000     0.400060000000     0.0510028  
H87      H      0.405050000000     0.697000000000     0.346500000000     0.0509804  
H88      H      0.304770000000     0.596590000000     0.346480000000     0.0509945  
H89      H      0.096490000000     0.804880000000     0.346510000000     0.0509832  
H90      H      0.196760000000     0.905300000000     0.346470000000     0.0509915  
H91      H      0.155040000000     0.947000000000     0.400030000000     0.0510247  
H92      H      0.054770000000     0.846580000000     0.400070000000     0.0509729  
H93      H      0.305860000000     0.906410000000     0.151640000000     0.0510013  
H94      H      0.406190000000     0.806010000000     0.151670000000     0.0510128  
H95      H      0.445670000000     0.845480000000     0.094900000000     0.0510521  
H96      H      0.345340000000     0.945870000000     0.094880000000     0.0510877  
H97      H      0.055870000000     0.656420000000     0.594880000000     0.0509875  
H98      H      0.156180000000     0.556000000000     0.594890000000     0.0510107  
H99      H      0.195660000000     0.595470000000     0.651660000000     0.0510302  
H100     H      0.095350000000     0.695880000000     0.651650000000     0.0510198  
H101     H      0.096500000000     0.697010000000     0.846530000000     0.0509784  
H102     H      0.196740000000     0.596570000000     0.846450000000     0.0509997  
H103     H      0.155030000000     0.554870000000     0.900010000000     0.0509675  
H104     H      0.054790000000     0.655310000000     0.900090000000     0.0509621  
H105     H      0.055870000000     0.845470000000     0.594890000000     0.0510058  
H106     H      0.156190000000     0.945880000000     0.594890000000     0.0510345  
H107     H      0.195660000000     0.906410000000     0.651650000000     0.0510296  
H108     H      0.095340000000     0.806010000000     0.651660000000     0.0509958  
H109     H      0.445660000000     0.656410000000     0.594890000000     0.0510107  
H110     H      0.345340000000     0.556010000000     0.594880000000     0.0510055  
H111     H      0.305870000000     0.595470000000     0.651650000000     0.0510137  
H112     H      0.406190000000     0.695870000000     0.651660000000     0.0510304  
H113     H      0.446760000000     0.846590000000     0.900070000000     0.0509779  
H114     H      0.346480000000     0.947000000000     0.900040000000     0.0509873  
H115     H      0.304770000000     0.905300000000     0.846480000000     0.051003   
H116     H      0.405050000000     0.804890000000     0.846500000000     0.0509862  
H117     H      0.346480000000     0.554890000000     0.900040000000     0.050974   
H118     H      0.446760000000     0.655300000000     0.900060000000     0.0509791  
H119     H      0.405050000000     0.697000000000     0.846500000000     0.0509773  
H120     H      0.304770000000     0.596590000000     0.846480000000     0.0509899  
H121     H      0.096490000000     0.804880000000     0.846510000000     0.0509807  
H122     H      0.196760000000     0.905300000000     0.846470000000     0.0509888  
H123     H      0.155040000000     0.947000000000     0.900030000000     0.0509999  
H124     H      0.054770000000     0.846580000000     0.900070000000     0.0509485  
H125     H      0.305860000000     0.906410000000     0.651640000000     0.0509961  
H126     H      0.406190000000     0.806010000000     0.651670000000     0.0510077  
H127     H      0.445670000000     0.845480000000     0.594900000000     0.0510201  
H128     H      0.345340000000     0.945870000000     0.594880000000     0.0510551  
H129     H      0.555870000000     0.156420000000     0.094880000000     0.0510397  
H130     H      0.656180000000     0.056000000000     0.094890000000     0.0510354  
H131     H      0.695660000000     0.095460000000     0.151660000000     0.0509869  
H132     H      0.595350000000     0.195880000000     0.151650000000     0.0510168  
H133     H      0.596500000000     0.197010000000     0.346530000000     0.0509891  
H134     H      0.696740000000     0.096570000000     0.346450000000     0.05099    
H135     H      0.655030000000     0.054870000000     0.400020000000     0.0509678  
H136     H      0.554790000000     0.155310000000     0.400090000000     0.0510015  
H137     H      0.555870000000     0.345470000000     0.094890000000     0.0510608  
H138     H      0.656190000000     0.445880000000     0.094880000000     0.0510548  
H139     H      0.695660000000     0.406410000000     0.151650000000     0.0510102  
H140     H      0.595340000000     0.306010000000     0.151660000000     0.0510026  
H141     H      0.945660000000     0.156410000000     0.094890000000     0.0510695  
H142     H      0.845340000000     0.056010000000     0.094880000000     0.0510266  
H143     H      0.805870000000     0.095470000000     0.151650000000     0.0509877  
H144     H      0.906190000000     0.195870000000     0.151660000000     0.0510275  
H145     H      0.946760000000     0.346590000000     0.400060000000     0.0510244  
H146     H      0.846480000000     0.447000000000     0.400040000000     0.0509914  
H147     H      0.804770000000     0.405300000000     0.346480000000     0.0509959  
H148     H      0.905050000000     0.304890000000     0.346500000000     0.0509981  
H149     H      0.846480000000     0.054890000000     0.400040000000     0.0509771  
H150     H      0.946760000000     0.155300000000     0.400060000000     0.0510266  
H151     H      0.905050000000     0.197000000000     0.346500000000     0.0509903  
H152     H      0.804770000000     0.096590000000     0.346480000000     0.0509828  
H153     H      0.596490000000     0.304880000000     0.346510000000     0.0509884  
H154     H      0.696750000000     0.405300000000     0.346470000000     0.0510037  
H155     H      0.655040000000     0.447000000000     0.400030000000     0.0509944  
H156     H      0.554770000000     0.346580000000     0.400070000000     0.0509909  
H157     H      0.805860000000     0.406410000000     0.151640000000     0.050997   
H158     H      0.906190000000     0.306010000000     0.151670000000     0.051027   
H159     H      0.945670000000     0.345480000000     0.094900000000     0.0510651  
H160     H      0.845330000000     0.445870000000     0.094880000000     0.051049   
H161     H      0.555870000000     0.156420000000     0.594880000000     0.0510052  
H162     H      0.656180000000     0.056000000000     0.594890000000     0.0509978  
H163     H      0.695660000000     0.095460000000     0.651660000000     0.0509879  
H164     H      0.595350000000     0.195880000000     0.651650000000     0.0510195  
H165     H      0.596500000000     0.197010000000     0.846530000000     0.0509862  
H166     H      0.696740000000     0.096570000000     0.846450000000     0.0509863  
H167     H      0.655030000000     0.054870000000     0.900010000000     0.0509427  
H168     H      0.554790000000     0.155310000000     0.900090000000     0.0509778  
H169     H      0.555870000000     0.345470000000     0.594890000000     0.0510262  
H170     H      0.656190000000     0.445880000000     0.594890000000     0.051017   
H171     H      0.695660000000     0.406410000000     0.651650000000     0.0510117  
H172     H      0.595340000000     0.306010000000     0.651660000000     0.0510035  
H173     H      0.945660000000     0.156410000000     0.594890000000     0.0510355  
H174     H      0.845340000000     0.056010000000     0.594880000000     0.050989   
H175     H      0.805870000000     0.095470000000     0.651650000000     0.0509884  
H176     H      0.906190000000     0.195870000000     0.651660000000     0.0510288  
H177     H      0.946760000000     0.346590000000     0.900070000000     0.0509999  
H178     H      0.846480000000     0.447000000000     0.900040000000     0.0509659  
H179     H      0.804770000000     0.405300000000     0.846480000000     0.0509937  
H180     H      0.905050000000     0.304890000000     0.846500000000     0.0509968  
H181     H      0.846480000000     0.054890000000     0.900040000000     0.0509542  
H182     H      0.946760000000     0.155300000000     0.900060000000     0.0510029  
H183     H      0.905050000000     0.197000000000     0.846500000000     0.0509873  
H184     H      0.804770000000     0.096590000000     0.846480000000     0.0509782  
H185     H      0.596490000000     0.304880000000     0.846510000000     0.0509859  
H186     H      0.696750000000     0.405300000000     0.846470000000     0.051001   
H187     H      0.655040000000     0.447000000000     0.900030000000     0.0509696  
H188     H      0.554770000000     0.346580000000     0.900070000000     0.0509664  
H189     H      0.805860000000     0.406410000000     0.651640000000     0.0509918  
H190     H      0.906190000000     0.306010000000     0.651670000000     0.0510218  
H191     H      0.945670000000     0.345480000000     0.594900000000     0.0510331  
H192     H      0.845330000000     0.445870000000     0.594880000000     0.0510164  
H193     H      0.555870000000     0.656420000000     0.094880000000     0.051037   
H194     H      0.656180000000     0.556000000000     0.094890000000     0.0510523  
H195     H      0.695660000000     0.595470000000     0.151660000000     0.0510236  
H196     H      0.595350000000     0.695880000000     0.151650000000     0.05103    
H197     H      0.596500000000     0.697010000000     0.346530000000     0.0509724  
H198     H      0.696740000000     0.596570000000     0.346450000000     0.0509974  
H199     H      0.655030000000     0.554870000000     0.400020000000     0.0509922  
H200     H      0.554790000000     0.655310000000     0.400090000000     0.0510093  
H201     H      0.555870000000     0.845470000000     0.094890000000     0.0510623  
H202     H      0.656190000000     0.945880000000     0.094880000000     0.0510773  
H203     H      0.695660000000     0.906410000000     0.151650000000     0.0510207  
H204     H      0.595340000000     0.806010000000     0.151660000000     0.0510035  
H205     H      0.945660000000     0.656410000000     0.094890000000     0.0510676  
H206     H      0.845340000000     0.556010000000     0.094880000000     0.0510449  
H207     H      0.805870000000     0.595470000000     0.151650000000     0.0510134  
H208     H      0.906190000000     0.695870000000     0.151660000000     0.0510398  
H209     H      0.946760000000     0.846590000000     0.400060000000     0.0510261  
H210     H      0.846480000000     0.947000000000     0.400040000000     0.0510147  
H211     H      0.804770000000     0.905300000000     0.346480000000     0.051006   
H212     H      0.905050000000     0.804890000000     0.346500000000     0.050998   
H213     H      0.846480000000     0.554890000000     0.400040000000     0.0509989  
H214     H      0.946760000000     0.655300000000     0.400060000000     0.0510277  
H215     H      0.905050000000     0.697000000000     0.346500000000     0.0509906  
H216     H      0.804770000000     0.596590000000     0.346480000000     0.0509935  
H217     H      0.596490000000     0.804880000000     0.346510000000     0.0509884  
H218     H      0.696750000000     0.905300000000     0.346470000000     0.0510138  
H219     H      0.655040000000     0.947000000000     0.400030000000     0.0510179  
H220     H      0.554770000000     0.846580000000     0.400070000000     0.0509926  
H221     H      0.805860000000     0.906410000000     0.151640000000     0.051004   
H222     H      0.906190000000     0.806010000000     0.151670000000     0.0510244  
H223     H      0.945670000000     0.845480000000     0.094900000000     0.0510744  
H224     H      0.845330000000     0.945870000000     0.094880000000     0.0510786  
H225     H      0.555870000000     0.656420000000     0.594880000000     0.0510025  
H226     H      0.656180000000     0.556000000000     0.594890000000     0.0510147  
H227     H      0.695660000000     0.595470000000     0.651660000000     0.0510246  
H228     H      0.595350000000     0.695880000000     0.651650000000     0.0510327  
H229     H      0.596500000000     0.697010000000     0.846530000000     0.0509695  
H230     H      0.696740000000     0.596570000000     0.846450000000     0.0509937  
H231     H      0.655030000000     0.554870000000     0.900010000000     0.0509671  
H232     H      0.554790000000     0.655310000000     0.900090000000     0.0509857  
H233     H      0.555870000000     0.845470000000     0.594890000000     0.0510278  
H234     H      0.656190000000     0.945880000000     0.594890000000     0.0510395  
H235     H      0.695660000000     0.906410000000     0.651650000000     0.0510222  
H236     H      0.595340000000     0.806010000000     0.651660000000     0.0510044  
H237     H      0.945660000000     0.656410000000     0.594890000000     0.0510336  
H238     H      0.845340000000     0.556010000000     0.594880000000     0.0510073  
H239     H      0.805870000000     0.595470000000     0.651650000000     0.0510141  
H240     H      0.906190000000     0.695870000000     0.651660000000     0.0510411  
H241     H      0.946760000000     0.846590000000     0.900070000000     0.0510016  
H242     H      0.846480000000     0.947000000000     0.900040000000     0.0509892  
H243     H      0.804770000000     0.905300000000     0.846480000000     0.0510038  
H244     H      0.905050000000     0.804890000000     0.846500000000     0.0509967  
H245     H      0.846480000000     0.554890000000     0.900040000000     0.050976   
H246     H      0.946760000000     0.655300000000     0.900060000000     0.051004   
H247     H      0.905050000000     0.697000000000     0.846500000000     0.0509875  
H248     H      0.804770000000     0.596590000000     0.846480000000     0.0509889  
H249     H      0.596490000000     0.804880000000     0.846510000000     0.050986   
H250     H      0.696750000000     0.905300000000     0.846470000000     0.0510111  
H251     H      0.655040000000     0.947000000000     0.900030000000     0.0509931  
H252     H      0.554770000000     0.846580000000     0.900070000000     0.0509682  
H253     H      0.805860000000     0.906410000000     0.651640000000     0.0509987  
H254     H      0.906190000000     0.806010000000     0.651670000000     0.0510193  
H255     H      0.945670000000     0.845480000000     0.594900000000     0.0510423  
H256     H      0.845330000000     0.945870000000     0.594880000000     0.051046   
O1       O      0.461300000000     0.409690000000     0.451920000000    -0.354956   
O2       O      0.040230000000     0.092200000000     0.451920000000    -0.35485    
O3       O      0.409550000000     0.040400000000     0.451910000000    -0.354975   
O4       O      0.091980000000     0.461480000000     0.451910000000    -0.354981   
O5       O      0.461300000000     0.092200000000     0.451920000000    -0.354878   
O6       O      0.040230000000     0.409690000000     0.451920000000    -0.354933   
O7       O      0.091980000000     0.040400000000     0.451910000000    -0.354969   
O8       O      0.409550000000     0.461480000000     0.451910000000    -0.354985   
O9       O      0.042050000000     0.407880000000     0.042250000000    -0.348055   
O10      O      0.459480000000     0.094000000000     0.042250000000    -0.348122   
O11      O      0.407740000000     0.459660000000     0.042250000000    -0.348196   
O12      O      0.093790000000     0.042220000000     0.042250000000    -0.348099   
O13      O      0.042050000000     0.094000000000     0.042250000000    -0.348091   
O14      O      0.459480000000     0.407880000000     0.042260000000    -0.348122   
O15      O      0.093790000000     0.459670000000     0.042250000000    -0.348112   
O16      O      0.407740000000     0.042220000000     0.042250000000    -0.34811    
O17      O      0.500760000000     0.500940000000     0.515880000000    -0.584945   
O18      O      0.292050000000     0.344000000000     0.204290000000    -0.348267   
O19      O      0.209480000000     0.157890000000     0.204290000000    -0.348397   
O20      O      0.343790000000     0.209660000000     0.204290000000    -0.348429   
O21      O      0.157740000000     0.292220000000     0.204290000000    -0.348408   
O22      O      0.292050000000     0.157890000000     0.204290000000    -0.348365   
O23      O      0.209480000000     0.344000000000     0.204290000000    -0.348308   
O24      O      0.157740000000     0.209660000000     0.204290000000    -0.348427   
O25      O      0.343790000000     0.292220000000     0.204290000000    -0.348403   
O26      O      0.211300000000     0.342200000000     0.294620000000    -0.354905   
O27      O      0.290230000000     0.159690000000     0.294620000000    -0.354987   
O28      O      0.341980000000     0.290400000000     0.294630000000    -0.354966   
O29      O      0.159550000000     0.211480000000     0.294630000000    -0.354983   
O30      O      0.211300000000     0.159680000000     0.294620000000    -0.354941   
O31      O      0.290230000000     0.342200000000     0.294620000000    -0.354883   
O32      O      0.159540000000     0.290400000000     0.294630000000    -0.354902   
O33      O      0.341980000000     0.211480000000     0.294630000000    -0.354994   
O34      O      0.250760000000     0.250940000000     0.230660000000    -0.584917   
O35      O      0.461300000000     0.409690000000     0.951920000000    -0.354942   
O36      O      0.040230000000     0.092200000000     0.951920000000    -0.354831   
O37      O      0.409550000000     0.040400000000     0.951910000000    -0.354953   
O38      O      0.091980000000     0.461480000000     0.951910000000    -0.354959   
O39      O      0.461300000000     0.092200000000     0.951920000000    -0.354859   
O40      O      0.040230000000     0.409690000000     0.951920000000    -0.35491    
O41      O      0.091980000000     0.040400000000     0.951910000000    -0.354946   
O42      O      0.409550000000     0.461480000000     0.951910000000    -0.354965   
O43      O      0.042050000000     0.407880000000     0.542260000000    -0.348287   
O44      O      0.459480000000     0.094000000000     0.542260000000    -0.348349   
O45      O      0.407740000000     0.459660000000     0.542250000000    -0.348432   
O46      O      0.093790000000     0.042220000000     0.542250000000    -0.348349   
O47      O      0.042050000000     0.094000000000     0.542260000000    -0.348318   
O48      O      0.459480000000     0.407880000000     0.542260000000    -0.348354   
O49      O      0.093790000000     0.459670000000     0.542250000000    -0.348362   
O50      O      0.407740000000     0.042220000000     0.542250000000    -0.348362   
O51      O      0.500760000000     0.500940000000     0.015880000000    -0.584402   
O52      O      0.292050000000     0.344000000000     0.704290000000    -0.348269   
O53      O      0.209480000000     0.157890000000     0.704290000000    -0.348389   
O54      O      0.343790000000     0.209660000000     0.704290000000    -0.348421   
O55      O      0.157740000000     0.292220000000     0.704290000000    -0.3484     
O56      O      0.292050000000     0.157890000000     0.704290000000    -0.348357   
O57      O      0.209480000000     0.344000000000     0.704290000000    -0.348299   
O58      O      0.157740000000     0.209660000000     0.704290000000    -0.348419   
O59      O      0.343790000000     0.292220000000     0.704290000000    -0.348405   
O60      O      0.211300000000     0.342200000000     0.794620000000    -0.354898   
O61      O      0.290230000000     0.159690000000     0.794620000000    -0.354981   
O62      O      0.341980000000     0.290400000000     0.794630000000    -0.354959   
O63      O      0.159550000000     0.211480000000     0.794630000000    -0.354977   
O64      O      0.211300000000     0.159680000000     0.794620000000    -0.354935   
O65      O      0.290230000000     0.342200000000     0.794620000000    -0.354877   
O66      O      0.159540000000     0.290400000000     0.794630000000    -0.354895   
O67      O      0.341980000000     0.211480000000     0.794630000000    -0.354988   
O68      O      0.250760000000     0.250940000000     0.730660000000    -0.58492    
O69      O      0.461300000000     0.909690000000     0.451920000000    -0.354954   
O70      O      0.040230000000     0.592200000000     0.451920000000    -0.354845   
O71      O      0.409550000000     0.540400000000     0.451910000000    -0.354959   
O72      O      0.091980000000     0.961480000000     0.451910000000    -0.354908   
O73      O      0.461300000000     0.592200000000     0.451920000000    -0.354874   
O74      O      0.040230000000     0.909690000000     0.451920000000    -0.354929   
O75      O      0.091980000000     0.540400000000     0.451910000000    -0.354955   
O76      O      0.409550000000     0.961480000000     0.451910000000    -0.354916   
O77      O      0.042050000000     0.907880000000     0.042250000000    -0.348052   
O78      O      0.459480000000     0.594000000000     0.042250000000    -0.348115   
O79      O      0.407740000000     0.959670000000     0.042250000000    -0.34806    
O80      O      0.093790000000     0.542220000000     0.042250000000    -0.348166   
O81      O      0.042050000000     0.594000000000     0.042250000000    -0.348084   
O82      O      0.459480000000     0.907880000000     0.042260000000    -0.34808    
O83      O      0.093790000000     0.959670000000     0.042250000000    -0.348041   
O84      O      0.407740000000     0.542220000000     0.042250000000    -0.348182   
O85      O      0.500760000000     0.000940000000     0.515880000000    -0.58497    
O86      O      0.292050000000     0.844000000000     0.204290000000    -0.348264   
O87      O      0.209480000000     0.657880000000     0.204290000000    -0.348275   
O88      O      0.343790000000     0.709670000000     0.204290000000    -0.348344   
O89      O      0.157740000000     0.792220000000     0.204290000000    -0.348404   
O90      O      0.292050000000     0.657880000000     0.204290000000    -0.348242   
O91      O      0.209480000000     0.844000000000     0.204290000000    -0.348303   
O92      O      0.157740000000     0.709670000000     0.204290000000    -0.348342   
O93      O      0.343790000000     0.792220000000     0.204290000000    -0.3484     
O94      O      0.211300000000     0.842200000000     0.294620000000    -0.354901   
O95      O      0.290230000000     0.659690000000     0.294620000000    -0.354972   
O96      O      0.341980000000     0.790400000000     0.294630000000    -0.354968   
O97      O      0.159550000000     0.711480000000     0.294630000000    -0.354988   
O98      O      0.211300000000     0.659680000000     0.294620000000    -0.354928   
O99      O      0.290230000000     0.842200000000     0.294620000000    -0.35488    
O100     O      0.159540000000     0.790400000000     0.294630000000    -0.354903   
O101     O      0.341980000000     0.711480000000     0.294630000000    -0.354996   
O102     O      0.250760000000     0.750940000000     0.230660000000    -0.584918   
O103     O      0.461300000000     0.909690000000     0.951920000000    -0.35494    
O104     O      0.040230000000     0.592200000000     0.951920000000    -0.354826   
O105     O      0.409550000000     0.540400000000     0.951910000000    -0.354938   
O106     O      0.091980000000     0.961480000000     0.951910000000    -0.354886   
O107     O      0.461300000000     0.592200000000     0.951920000000    -0.354855   
O108     O      0.040230000000     0.909690000000     0.951920000000    -0.354906   
O109     O      0.091980000000     0.540400000000     0.951910000000    -0.354932   
O110     O      0.409550000000     0.961480000000     0.951910000000    -0.354897   
O111     O      0.042050000000     0.907880000000     0.542260000000    -0.348284   
O112     O      0.459480000000     0.594000000000     0.542260000000    -0.348341   
O113     O      0.407740000000     0.959670000000     0.542250000000    -0.348296   
O114     O      0.093790000000     0.542220000000     0.542250000000    -0.348416   
O115     O      0.042050000000     0.594000000000     0.542260000000    -0.348311   
O116     O      0.459480000000     0.907880000000     0.542260000000    -0.348311   
O117     O      0.093790000000     0.959670000000     0.542250000000    -0.348291   
O118     O      0.407740000000     0.542220000000     0.542250000000    -0.348433   
O119     O      0.500760000000     0.000940000000     0.015880000000    -0.584427   
O120     O      0.292050000000     0.844000000000     0.704290000000    -0.348265   
O121     O      0.209480000000     0.657880000000     0.704290000000    -0.348267   
O122     O      0.343790000000     0.709670000000     0.704290000000    -0.348336   
O123     O      0.157740000000     0.792220000000     0.704290000000    -0.348396   
O124     O      0.292050000000     0.657880000000     0.704290000000    -0.348234   
O125     O      0.209480000000     0.844000000000     0.704290000000    -0.348295   
O126     O      0.157740000000     0.709670000000     0.704290000000    -0.348333   
O127     O      0.343790000000     0.792220000000     0.704290000000    -0.348401   
O128     O      0.211300000000     0.842200000000     0.794620000000    -0.354895   
O129     O      0.290230000000     0.659690000000     0.794620000000    -0.354965   
O130     O      0.341980000000     0.790400000000     0.794630000000    -0.354961   
O131     O      0.159550000000     0.711480000000     0.794630000000    -0.354981   
O132     O      0.211300000000     0.659680000000     0.794620000000    -0.354922   
O133     O      0.290230000000     0.842200000000     0.794620000000    -0.354873   
O134     O      0.159540000000     0.790400000000     0.794630000000    -0.354896   
O135     O      0.341980000000     0.711480000000     0.794630000000    -0.354989   
O136     O      0.250760000000     0.750940000000     0.730660000000    -0.58492    
O137     O      0.961300000000     0.409690000000     0.451920000000    -0.354884   
O138     O      0.540240000000     0.092200000000     0.451920000000    -0.354901   
O139     O      0.909550000000     0.040400000000     0.451910000000    -0.354971   
O140     O      0.591980000000     0.461480000000     0.451910000000    -0.35498    
O141     O      0.961300000000     0.092200000000     0.451920000000    -0.354799   
O142     O      0.540230000000     0.409690000000     0.451920000000    -0.354922   
O143     O      0.591980000000     0.040400000000     0.451910000000    -0.355004   
O144     O      0.909550000000     0.461480000000     0.451910000000    -0.354982   
O145     O      0.542050000000     0.407880000000     0.042250000000    -0.348045   
O146     O      0.959480000000     0.094000000000     0.042250000000    -0.348053   
O147     O      0.907740000000     0.459660000000     0.042250000000    -0.348192   
O148     O      0.593790000000     0.042220000000     0.042250000000    -0.348104   
O149     O      0.542050000000     0.094000000000     0.042250000000    -0.348083   
O150     O      0.959480000000     0.407880000000     0.042260000000    -0.348052   
O151     O      0.593790000000     0.459670000000     0.042250000000    -0.348111   
O152     O      0.907740000000     0.042220000000     0.042250000000    -0.348107   
O153     O      0.000760000000     0.500940000000     0.515880000000    -0.584975   
O154     O      0.792050000000     0.344000000000     0.204290000000    -0.348267   
O155     O      0.709480000000     0.157890000000     0.204290000000    -0.348399   
O156     O      0.843790000000     0.209660000000     0.204290000000    -0.348424   
O157     O      0.657740000000     0.292220000000     0.204290000000    -0.348418   
O158     O      0.792050000000     0.157890000000     0.204290000000    -0.348361   
O159     O      0.709480000000     0.344000000000     0.204290000000    -0.348314   
O160     O      0.657740000000     0.209660000000     0.204290000000    -0.348435   
O161     O      0.843790000000     0.292220000000     0.204290000000    -0.348399   
O162     O      0.711300000000     0.342200000000     0.294620000000    -0.35492    
O163     O      0.790230000000     0.159690000000     0.294620000000    -0.354993   
O164     O      0.841980000000     0.290400000000     0.294630000000    -0.354963   
O165     O      0.659550000000     0.211480000000     0.294630000000    -0.355021   
O166     O      0.711290000000     0.159680000000     0.294620000000    -0.355007   
O167     O      0.790230000000     0.342200000000     0.294620000000    -0.354882   
O168     O      0.659550000000     0.290400000000     0.294630000000    -0.354977   
O169     O      0.841980000000     0.211480000000     0.294630000000    -0.354991   
O170     O      0.750760000000     0.250940000000     0.230660000000    -0.584922   
O171     O      0.961300000000     0.409690000000     0.951920000000    -0.35487    
O172     O      0.540240000000     0.092200000000     0.951920000000    -0.354882   
O173     O      0.909550000000     0.040400000000     0.951910000000    -0.354949   
O174     O      0.591980000000     0.461480000000     0.951910000000    -0.354958   
O175     O      0.961300000000     0.092200000000     0.951920000000    -0.35478    
O176     O      0.540230000000     0.409690000000     0.951920000000    -0.354899   
O177     O      0.591980000000     0.040400000000     0.951910000000    -0.354981   
O178     O      0.909550000000     0.461480000000     0.951910000000    -0.354962   
O179     O      0.542050000000     0.407880000000     0.542260000000    -0.348277   
O180     O      0.959480000000     0.094000000000     0.542260000000    -0.34828    
O181     O      0.907740000000     0.459660000000     0.542250000000    -0.348428   
O182     O      0.593790000000     0.042220000000     0.542250000000    -0.348354   
O183     O      0.542050000000     0.094000000000     0.542260000000    -0.348309   
O184     O      0.959480000000     0.407880000000     0.542260000000    -0.348283   
O185     O      0.593790000000     0.459670000000     0.542250000000    -0.348361   
O186     O      0.907740000000     0.042220000000     0.542250000000    -0.348359   
O187     O      0.000760000000     0.500940000000     0.015880000000    -0.584432   
O188     O      0.792050000000     0.344000000000     0.704290000000    -0.348269   
O189     O      0.709480000000     0.157890000000     0.704290000000    -0.348391   
O190     O      0.843790000000     0.209660000000     0.704290000000    -0.348416   
O191     O      0.657740000000     0.292220000000     0.704290000000    -0.34841    
O192     O      0.792050000000     0.157890000000     0.704290000000    -0.348353   
O193     O      0.709480000000     0.344000000000     0.704290000000    -0.348306   
O194     O      0.657740000000     0.209660000000     0.704290000000    -0.348427   
O195     O      0.843790000000     0.292220000000     0.704290000000    -0.348401   
O196     O      0.711300000000     0.342200000000     0.794620000000    -0.354913   
O197     O      0.790230000000     0.159690000000     0.794620000000    -0.354987   
O198     O      0.841980000000     0.290400000000     0.794630000000    -0.354956   
O199     O      0.659550000000     0.211480000000     0.794630000000    -0.355015   
O200     O      0.711290000000     0.159680000000     0.794620000000    -0.355001   
O201     O      0.790230000000     0.342200000000     0.794620000000    -0.354875   
O202     O      0.659550000000     0.290400000000     0.794630000000    -0.35497    
O203     O      0.841980000000     0.211480000000     0.794630000000    -0.354984   
O204     O      0.750760000000     0.250940000000     0.730660000000    -0.584924   
O205     O      0.961300000000     0.909690000000     0.451920000000    -0.354882   
O206     O      0.540240000000     0.592200000000     0.451920000000    -0.354897   
O207     O      0.909550000000     0.540400000000     0.451910000000    -0.354956   
O208     O      0.591980000000     0.961480000000     0.451910000000    -0.354907   
O209     O      0.961300000000     0.592200000000     0.451920000000    -0.354795   
O210     O      0.540230000000     0.909690000000     0.451920000000    -0.354918   
O211     O      0.591980000000     0.540400000000     0.451910000000    -0.35499    
O212     O      0.909550000000     0.961480000000     0.451910000000    -0.354913   
O213     O      0.542050000000     0.907880000000     0.042250000000    -0.348042   
O214     O      0.959480000000     0.594000000000     0.042250000000    -0.348046   
O215     O      0.907740000000     0.959670000000     0.042250000000    -0.348056   
O216     O      0.593790000000     0.542220000000     0.042250000000    -0.348171   
O217     O      0.542050000000     0.594000000000     0.042250000000    -0.348075   
O218     O      0.959480000000     0.907880000000     0.042260000000    -0.34801    
O219     O      0.593790000000     0.959670000000     0.042250000000    -0.34804    
O220     O      0.907740000000     0.542220000000     0.042250000000    -0.348179   
O221     O      0.000760000000     0.000940000000     0.515880000000    -0.585      
O222     O      0.792050000000     0.844000000000     0.204290000000    -0.348263   
O223     O      0.709480000000     0.657880000000     0.204290000000    -0.348277   
O224     O      0.843790000000     0.709670000000     0.204290000000    -0.34834    
O225     O      0.657740000000     0.792220000000     0.204290000000    -0.348413   
O226     O      0.792050000000     0.657880000000     0.204290000000    -0.348239   
O227     O      0.709480000000     0.844000000000     0.204290000000    -0.34831    
O228     O      0.657740000000     0.709670000000     0.204290000000    -0.34835    
O229     O      0.843790000000     0.792220000000     0.204290000000    -0.348396   
O230     O      0.711300000000     0.842200000000     0.294620000000    -0.354916   
O231     O      0.790230000000     0.659690000000     0.294620000000    -0.354978   
O232     O      0.841980000000     0.790400000000     0.294630000000    -0.354964   
O233     O      0.659550000000     0.711480000000     0.294630000000    -0.355026   
O234     O      0.711290000000     0.659680000000     0.294620000000    -0.354994   
O235     O      0.790230000000     0.842200000000     0.294620000000    -0.354878   
O236     O      0.659550000000     0.790400000000     0.294630000000    -0.354978   
O237     O      0.841980000000     0.711480000000     0.294630000000    -0.354993   
O238     O      0.750760000000     0.750940000000     0.230660000000    -0.584922   
O239     O      0.961300000000     0.909690000000     0.951920000000    -0.354868   
O240     O      0.540240000000     0.592200000000     0.951920000000    -0.354877   
O241     O      0.909550000000     0.540400000000     0.951910000000    -0.354934   
O242     O      0.591980000000     0.961480000000     0.951910000000    -0.354885   
O243     O      0.961300000000     0.592200000000     0.951920000000    -0.354776   
O244     O      0.540230000000     0.909690000000     0.951920000000    -0.354895   
O245     O      0.591980000000     0.540400000000     0.951910000000    -0.354967   
O246     O      0.909550000000     0.961480000000     0.951910000000    -0.354893   
O247     O      0.542050000000     0.907880000000     0.542260000000    -0.348274   
O248     O      0.959480000000     0.594000000000     0.542260000000    -0.348273   
O249     O      0.907740000000     0.959670000000     0.542250000000    -0.348292   
O250     O      0.593790000000     0.542220000000     0.542250000000    -0.348421   
O251     O      0.542050000000     0.594000000000     0.542260000000    -0.348302   
O252     O      0.959480000000     0.907880000000     0.542260000000    -0.348241   
O253     O      0.593790000000     0.959670000000     0.542250000000    -0.34829    
O254     O      0.907740000000     0.542220000000     0.542250000000    -0.348431   
O255     O      0.000760000000     0.000940000000     0.015880000000    -0.584456   
O256     O      0.792050000000     0.844000000000     0.704290000000    -0.348265   
O257     O      0.709480000000     0.657880000000     0.704290000000    -0.348269   
O258     O      0.843790000000     0.709670000000     0.704290000000    -0.348331   
O259     O      0.657740000000     0.792220000000     0.704290000000    -0.348405   
O260     O      0.792050000000     0.657880000000     0.704290000000    -0.348231   
O261     O      0.709480000000     0.844000000000     0.704290000000    -0.348301   
O262     O      0.657740000000     0.709670000000     0.704290000000    -0.348342   
O263     O      0.843790000000     0.792220000000     0.704290000000    -0.348397   
O264     O      0.711300000000     0.842200000000     0.794620000000    -0.35491    
O265     O      0.790230000000     0.659690000000     0.794620000000    -0.354971   
O266     O      0.841980000000     0.790400000000     0.794630000000    -0.354957   
O267     O      0.659550000000     0.711480000000     0.794630000000    -0.355019   
O268     O      0.711290000000     0.659680000000     0.794620000000    -0.354988   
O269     O      0.790230000000     0.842200000000     0.794620000000    -0.354871   
O270     O      0.659550000000     0.790400000000     0.794630000000    -0.354971   
O271     O      0.841980000000     0.711480000000     0.794630000000    -0.354986   
O272     O      0.750760000000     0.750940000000     0.730660000000    -0.584925   


