data_structure

_audit_creation_method RASPA-1.0
_audit_creation_date 2023-6-4
_audit_author_name 'Poobodin Mano'

_cell_length_a    22.7411
_cell_length_b    23.8406
_cell_length_c    23.8279
_cell_angle_alpha 87.135
_cell_angle_beta  93.8155
_cell_angle_gamma 120.437
_cell_volume      11111.5

_symmetry_cell_setting          triclinic
_symmetry_space_group_name_Hall 'P 1'
_symmetry_space_group_name_H-M  'P 1'
_symmetry_Int_Tables_number     1

_symmetry_equiv_pos_as_xyz 'x,y,z'

loop_
_atom_site_label
_atom_site_type_symbol
_atom_site_fract_x
_atom_site_fract_y
_atom_site_fract_z
_atom_site_charge
C1       C      0.025650000000     0.172990000000     0.022270000000     0.474059   
C2       C      0.888020000000     0.940310000000     0.019410000000     0.456871   
C3       C      0.069680000000     0.089810000000     0.916190000000     0.486068   
C4       C      0.907060000000     0.008880000000     0.165590000000     0.432047   
C5       C      0.076600000000     0.045970000000     0.192160000000     0.481084   
C6       C      0.177410000000     0.047710000000     0.009430000000     0.503539   
C7       C      0.178940000000     0.204040000000     0.103140000000     0.410908   
C8       C      0.997830000000     0.892010000000     0.060150000000     0.460528   
C9       C      0.095450000000     0.022700000000     0.418040000000     0.508918   
C10      C      0.082650000000     0.185740000000     0.586800000000     0.482027   
C11      C      0.933640000000     0.985920000000     0.503810000000     0.399665   
C12      C      0.248710000000     0.186430000000     0.512120000000     0.475735   
C13      C      0.255740000000     0.070800000000     0.598180000000     0.452391   
C14      C      0.980130000000     0.920710000000     0.621450000000     0.44465    
C15      C      0.067640000000     0.883210000000     0.500160000000     0.39024    
C16      C      0.085550000000     0.077800000000     0.689390000000     0.472046   
C17      C      0.917920000000     0.458270000000     0.976100000000     0.440784   
C18      C      0.000130000000     0.674020000000     0.024610000000     0.496961   
C19      C      0.903200000000     0.484790000000     0.128030000000     0.39303    
C20      C      0.069730000000     0.556030000000     0.896160000000     0.430555   
C21      C      0.198190000000     0.601390000000     0.019360000000     0.443094   
C22      C      0.081140000000     0.526690000000     0.171600000000     0.480887   
C23      C      0.025540000000     0.397390000000     0.015320000000     0.398201   
C24      C      0.172060000000     0.731310000000     0.073720000000     0.514751   
C25      C      0.957550000000     0.383220000000     0.465560000000     0.461717   
C26      C      0.106830000000     0.675380000000     0.490380000000     0.453897   
C27      C      0.977160000000     0.573590000000     0.544590000000     0.495217   
C28      C      0.093290000000     0.485560000000     0.394340000000     0.444706   
C29      C      0.227700000000     0.531440000000     0.505680000000     0.457232   
C30      C      0.040740000000     0.509190000000     0.666160000000     0.435285   
C31      C      0.030700000000     0.382880000000     0.602780000000     0.448236   
C32      C      0.240200000000     0.660430000000     0.551790000000     0.462909   
C33      C      0.421510000000     0.072490000000     0.060020000000     0.484416   
C34      C      0.586890000000     0.925560000000     0.053450000000     0.388586   
C35      C      0.585020000000     0.070090000000     0.938330000000     0.521384   
C36      C      0.427480000000     0.954420000000     0.097310000000     0.452627   
C37      C      0.556320000000     0.013670000000     0.212930000000     0.443876   
C38      C      0.700120000000     0.219040000000     0.005850000000     0.483727   
C39      C      0.568710000000     0.213980000000     0.123800000000     0.437953   
C40      C      0.703110000000     0.056040000000     0.143380000000     0.475475   
C41      C      0.481590000000     0.103190000000     0.512370000000     0.449743   
C42      C      0.616700000000     0.918270000000     0.521100000000     0.488217   
C43      C      0.579400000000     0.025990000000     0.439190000000     0.463484   
C44      C      0.456720000000     0.904840000000     0.601950000000     0.48142    
C45      C      0.577410000000     0.011950000000     0.714820000000     0.478672   
C46      C      0.715950000000     0.175470000000     0.492350000000     0.45057    
C47      C      0.608290000000     0.175400000000     0.620230000000     0.463749   
C48      C      0.745260000000     0.021390000000     0.609400000000     0.472959   
C49      C      0.427930000000     0.397770000000     0.032990000000     0.422401   
C50      C      0.573180000000     0.697600000000     0.021200000000     0.452081   
C51      C      0.407770000000     0.569880000000     0.097690000000     0.482553   
C52      C      0.569950000000     0.536340000000     0.945160000000     0.495774   
C53      C      0.673860000000     0.493830000000     0.051920000000     0.365672   
C54      C      0.519510000000     0.557790000000     0.216610000000     0.469592   
C55      C      0.540310000000     0.424630000000     0.154530000000     0.431127   
C56      C      0.695770000000     0.704010000000     0.113080000000     0.46842    
C57      C      0.492560000000     0.410080000000     0.515950000000     0.469809   
C58      C      0.667900000000     0.727210000000     0.514200000000     0.441003   
C59      C      0.471630000000     0.550500000000     0.585120000000     0.497873   
C60      C      0.596430000000     0.556820000000     0.440320000000     0.46356    
C61      C      0.766410000000     0.599960000000     0.502740000000     0.480217   
C62      C      0.566690000000     0.536290000000     0.713280000000     0.483574   
C63      C      0.617160000000     0.407710000000     0.617970000000     0.471705   
C64      C      0.753310000000     0.691290000000     0.633450000000     0.456063   
C65      C      0.543070000000     0.477790000000     0.860020000000     0.0280664  
C66      C      0.567480000000     0.586250000000     0.857750000000    -0.00196717 
C67      C      0.545360000000     0.479730000000     0.801340000000     0.030783   
C68      C      0.566500000000     0.587930000000     0.798800000000     0.112141   
C69      C      0.574040000000     0.649240000000     0.769830000000    -0.199904   
C70      C      0.547500000000     0.499690000000     0.354210000000     0.0294613  
C71      C      0.561480000000     0.603620000000     0.364470000000    -0.000726643
C72      C      0.523700000000     0.498760000000     0.298080000000     0.0358526  
C73      C      0.541460000000     0.604710000000     0.307550000000     0.12029    
C74      C      0.536660000000     0.663020000000     0.285500000000    -0.205454   
C75      C      0.691310000000     0.828930000000     0.471710000000     0.0225173  
C76      C      0.583830000000     0.756300000000     0.507530000000    -0.0103793  
C77      C      0.675710000000     0.878720000000     0.472260000000     0.0315263  
C78      C      0.566690000000     0.804570000000     0.505350000000     0.112873   
C79      C      0.493830000000     0.785420000000     0.515030000000    -0.20449    
C80      C      0.674010000000     0.290130000000     0.612870000000     0.0303615  
C81      C      0.576330000000     0.241840000000     0.666320000000    -0.00421036 
C82      C      0.675200000000     0.349210000000     0.612370000000     0.031352   
C83      C      0.575270000000     0.300930000000     0.663980000000     0.112745   
C84      C      0.521170000000     0.303480000000     0.695450000000    -0.20423    
C85      C      0.627480000000     0.026270000000     0.808140000000     0.0266621  
C86      C      0.527070000000     0.031030000000     0.789840000000    -0.000654331
C87      C      0.627420000000     0.039900000000     0.864400000000     0.0320813  
C88      C      0.526170000000     0.044560000000     0.846180000000     0.112088   
C89      C      0.466540000000     0.050940000000     0.862620000000    -0.201036   
C90      C      0.515030000000     0.019830000000     0.355050000000     0.0254915  
C91      C      0.592350000000     0.981240000000     0.357550000000    -0.00663016 
C92      C      0.510330000000     0.017480000000     0.296530000000     0.039183   
C93      C      0.583110000000     0.973270000000     0.298940000000     0.119843   
C94      C      0.621480000000     0.946900000000     0.271430000000    -0.219783   
C95      C      0.517880000000     0.758410000000     0.015450000000     0.0246951  
C96      C      0.634630000000     0.812570000000     0.997700000000    -0.00359798 
C97      C      0.522760000000     0.816680000000     0.027600000000     0.0309985  
C98      C      0.639220000000     0.873390000000     0.006680000000     0.10784    
C99      C      0.705050000000     0.935560000000     0.995440000000    -0.203299   
C100     C      0.488620000000     0.310190000000     0.146040000000     0.0330062  
C101     C      0.601500000000     0.368710000000     0.182100000000    -0.000521529
C102     C      0.498840000000     0.259830000000     0.131000000000     0.0339498  
C103     C      0.607490000000     0.312520000000     0.177420000000     0.110949   
C104     C      0.664560000000     0.309600000000     0.210940000000    -0.213807   
C105     C      0.829860000000     0.215890000000     0.470210000000     0.0332689  
C106     C      0.775430000000     0.274440000000     0.439640000000    -0.00320737 
C107     C      0.892960000000     0.269310000000     0.458520000000     0.0272746  
C108     C      0.839750000000     0.329840000000     0.430270000000     0.111173   
C109     C      0.841790000000     0.389430000000     0.403350000000    -0.205494   
C110     C      0.329900000000     0.732090000000     0.615720000000     0.0217779  
C111     C      0.317840000000     0.768510000000     0.524200000000    -0.00807247 
C112     C      0.384420000000     0.794490000000     0.627440000000     0.0283397  
C113     C      0.369920000000     0.831730000000     0.536250000000     0.11181    
C114     C      0.390730000000     0.882100000000     0.489070000000    -0.21058    
C115     C      0.844020000000     0.582380000000     0.461240000000     0.0285432  
C116     C      0.882390000000     0.661750000000     0.530120000000    -0.00144356 
C117     C      0.899380000000     0.574600000000     0.475200000000     0.0349619  
C118     C      0.937240000000     0.651570000000     0.547080000000     0.121258   
C119     C      0.989360000000     0.695020000000     0.590820000000    -0.21556    
C120     C      0.347950000000     0.574600000000     0.494750000000     0.0271656  
C121     C      0.288070000000     0.490710000000     0.560640000000    -0.00105654 
C122     C      0.409070000000     0.579070000000     0.517010000000     0.0307768  
C123     C      0.348410000000     0.495710000000     0.584160000000     0.110471   
C124     C      0.342100000000     0.452300000000     0.634970000000    -0.198125   
C125     C      0.098030000000     0.521770000000     0.814820000000     0.0263245  
C126     C      0.005320000000     0.539740000000     0.808160000000    -0.00604447 
C127     C      0.090090000000     0.510290000000     0.756880000000     0.0287951  
C128     C      0.993720000000     0.523570000000     0.750150000000     0.111989   
C129     C      0.935060000000     0.525320000000     0.718080000000    -0.210442   
C130     C      0.145200000000     0.560260000000     0.257960000000     0.0236503  
C131     C      0.069450000000     0.448420000000     0.244380000000    -0.00257145 
C132     C      0.147270000000     0.549290000000     0.315720000000     0.0425896  
C133     C      0.072060000000     0.436630000000     0.303410000000     0.113002   
C134     C      0.028850000000     0.368410000000     0.326400000000    -0.210519   
C135     C      0.796290000000     0.393550000000     0.973910000000     0.0264235  
C136     C      0.860740000000     0.348040000000     0.947980000000    -0.00183431 
C137     C      0.740340000000     0.330710000000     0.982430000000     0.0294442  
C138     C      0.806000000000     0.285010000000     0.959260000000     0.115616   
C139     C      0.809000000000     0.227430000000     0.939180000000    -0.206376   
C140     C      0.257010000000     0.819370000000     0.130950000000     0.0256943  
C141     C      0.270780000000     0.818220000000     0.034150000000    -0.00416375 
C142     C      0.321220000000     0.876780000000     0.135560000000     0.0292658  
C143     C      0.335400000000     0.874250000000     0.038350000000     0.11701    
C144     C      0.371890000000     0.901900000000     0.984050000000    -0.208839   
C145     C      0.782720000000     0.540420000000     0.100330000000     0.0264298  
C146     C      0.724440000000     0.428810000000     0.081510000000    -0.0100033  
C147     C      0.837120000000     0.535580000000     0.125380000000     0.0366744  
C148     C      0.780340000000     0.423670000000     0.106060000000     0.117719   
C149     C      0.772840000000     0.356930000000     0.112810000000    -0.213269   
C150     C      0.340210000000     0.576920000000     0.019980000000     0.0284011  
C151     C      0.345310000000     0.624110000000     0.105920000000    -0.00318632 
C152     C      0.290570000000     0.591210000000     0.998150000000     0.0353092  
C153     C      0.292430000000     0.635140000000     0.085470000000     0.11538    
C154     C      0.268030000000     0.666450000000     0.124070000000    -0.215266   
C155     C      0.933410000000     0.807300000000     0.641580000000     0.0292718  
C156     C      0.873710000000     0.857350000000     0.667550000000    -0.00463687 
C157     C      0.873960000000     0.746100000000     0.646120000000     0.0339469  
C158     C      0.816050000000     0.795280000000     0.678040000000     0.108477   
C159     C      0.760300000000     0.790090000000     0.712830000000    -0.202637   
C160     C      0.372360000000     0.358050000000     0.509340000000     0.0208581  
C161     C      0.424490000000     0.303690000000     0.475450000000    -0.00746848 
C162     C      0.309720000000     0.301000000000     0.508030000000     0.0308275  
C163     C      0.359360000000     0.246630000000     0.469540000000     0.119476   
C164     C      0.350550000000     0.193900000000     0.431710000000    -0.214199   
C165     C      0.882220000000     0.047280000000     0.521650000000     0.000877534
C166     C      0.830830000000     0.938790000000     0.554100000000    -0.00802244 
C167     C      0.840460000000     0.058160000000     0.553840000000     0.0253015  
C168     C      0.786050000000     0.948390000000     0.585520000000     0.114361   
C169     C      0.734430000000     0.890250000000     0.618520000000    -0.203988   
C170     C      0.373750000000     0.139690000000     0.579950000000     0.0315307  
C171     C      0.307710000000     0.043400000000     0.528940000000    -0.0126824  
C172     C      0.430460000000     0.153970000000     0.549490000000     0.0281111  
C173     C      0.364370000000     0.057510000000     0.498280000000     0.106515   
C174     C      0.354250000000     0.015430000000     0.449080000000    -0.208754   
C175     C      0.051860000000     0.732480000000     0.449970000000     0.0274893  
C176     C      0.146600000000     0.782750000000     0.514180000000    -0.0106492  
C177     C      0.038410000000     0.783180000000     0.457690000000     0.0254111  
C178     C      0.131650000000     0.830910000000     0.524640000000     0.109466   
C179     C      0.167130000000     0.871200000000     0.576500000000    -0.207212   
C180     C      0.986410000000     0.270750000000     0.587030000000     0.0275686  
C181     C      0.088620000000     0.330700000000     0.641070000000    -0.00835036 
C182     C      0.004650000000     0.224300000000     0.577680000000     0.0287844  
C183     C      0.105190000000     0.282100000000     0.635720000000     0.110865   
C184     C      0.169230000000     0.291240000000     0.667800000000    -0.199475   
C185     C      0.135350000000     0.118410000000     0.836200000000     0.0282288  
C186     C      0.015650000000     0.070680000000     0.825950000000    -0.00546213 
C187     C      0.137830000000     0.110070000000     0.779500000000     0.0302273  
C188     C      0.017730000000     0.065320000000     0.768130000000     0.11452    
C189     C      0.950380000000     0.036800000000     0.734380000000    -0.20646    
C190     C      0.138530000000     0.087840000000     0.277480000000     0.0287279  
C191     C      0.053810000000     0.976710000000     0.270990000000    -0.00537704 
C192     C      0.138420000000     0.082250000000     0.335400000000     0.0375325  
C193     C      0.050260000000     0.971340000000     0.329290000000     0.123007   
C194     C      0.003760000000     0.904720000000     0.354610000000    -0.214213   
C195     C      0.790130000000     0.876940000000     0.073620000000     0.0333525  
C196     C      0.828180000000     0.824120000000     0.018520000000     0.00841198 
C197     C      0.746770000000     0.817810000000     0.100560000000     0.0386454  
C198     C      0.786990000000     0.764470000000     0.046940000000     0.104721   
C199     C      0.789600000000     0.706280000000     0.027980000000    -0.186307   
C200     C      0.291380000000     0.238620000000     0.076400000000     0.0116446  
C201     C      0.245010000000     0.306390000000     0.056330000000    -0.0136775  
C202     C      0.352840000000     0.285260000000     0.053190000000     0.0295337  
C203     C      0.305600000000     0.351970000000     0.030720000000     0.106844   
C204     C      0.303120000000     0.404880000000     0.994880000000    -0.207221   
C205     C      0.789820000000     0.966590000000     0.184470000000     0.0248854  
C206     C      0.868160000000     0.078330000000     0.192320000000    -0.00341085 
C207     C      0.736730000000     0.980240000000     0.176110000000     0.0234886  
C208     C      0.815250000000     0.092550000000     0.185710000000     0.110774   
C209     C      0.831110000000     0.161190000000     0.195010000000    -0.209005   
C210     C      0.260720000000     0.024600000000     0.980570000000     0.0277236  
C211     C      0.245300000000     0.030270000000     0.076450000000     0.00293895 
C212     C      0.326040000000     0.034610000000     0.994940000000     0.0294462  
C213     C      0.309880000000     0.040030000000     0.091470000000     0.115916   
C214     C      0.329300000000     0.043060000000     0.153830000000    -0.203957   
C215     C      0.946600000000     0.721520000000     0.070240000000     0.0287769  
C216     C      0.990510000000     0.760300000000     0.981010000000    -0.00217618 
C217     C      0.948200000000     0.779530000000     0.080210000000     0.0270752  
C218     C      0.993930000000     0.819350000000     0.990890000000     0.106941   
C219     C      0.015800000000     0.868160000000     0.942430000000    -0.192681   
C220     C      0.053870000000     0.327680000000     0.972330000000     0.0256212  
C221     C      0.960380000000     0.282630000000     0.030930000000    -0.0119531  
C222     C      0.051380000000     0.268620000000     0.971080000000     0.0338706  
C223     C      0.955620000000     0.221800000000     0.027780000000     0.117344   
C224     C      0.894990000000     0.163620000000     0.053410000000    -0.208742   
Co1      Co     0.041910000000     0.120000000000     0.116770000000     1.028      
Co2      Co     0.032850000000     0.991160000000     0.988950000000     1.09718    
Co3      Co     0.134140000000     0.130880000000     0.027100000000     1.16071    
Co4      Co     0.974540000000     0.993900000000     0.106050000000     1.09541    
Co5      Co     0.173580000000     0.037760000000     0.514260000000     1.02084    
Co6      Co     0.016070000000     0.056760000000     0.575930000000     1.06202    
Co7      Co     0.040410000000     0.958180000000     0.522450000000     1.03831    
Co8      Co     0.174670000000     0.134830000000     0.606970000000     1.11114    
Co9      Co     0.066320000000     0.508450000000     0.006130000000     1.10641    
Co10     Co     0.049250000000     0.616310000000     0.113900000000     1.12283    
Co11     Co     0.984600000000     0.490930000000     0.075940000000     0.902954   
Co12     Co     0.098650000000     0.644640000000     0.978780000000     1.11785    
Co13     Co     0.098490000000     0.448640000000     0.515320000000     1.0935     
Co14     Co     0.111170000000     0.597640000000     0.587320000000     1.06968    
Co15     Co     0.978060000000     0.461680000000     0.550490000000     1.11297    
Co16     Co     0.142620000000     0.586770000000     0.460530000000     1.05537    
Co17     Co     0.519710000000     0.085140000000     0.146850000000     1.03388    
Co18     Co     0.668320000000     0.087080000000     0.041520000000     0.986552   
Co19     Co     0.549650000000     0.135690000000     0.018440000000     1.12766    
Co20     Co     0.559510000000     0.993530000000     0.095300000000     1.09783    
Co21     Co     0.518500000000     0.038820000000     0.613080000000     1.05857    
Co22     Co     0.689900000000     0.061170000000     0.529450000000     1.11716    
Co23     Co     0.579620000000     0.098390000000     0.522480000000     1.05563    
Co24     Co     0.598040000000     0.956600000000     0.624580000000     1.09149    
Co25     Co     0.571820000000     0.484780000000     0.056310000000     1.01933    
Co26     Co     0.545330000000     0.633030000000     0.122360000000     1.1145     
Co27     Co     0.454990000000     0.482960000000     0.107620000000     1.05142    
Co28     Co     0.642990000000     0.615550000000     0.037900000000     0.980426   
Co29     Co     0.642340000000     0.490130000000     0.528040000000     1.06354    
Co30     Co     0.609520000000     0.629730000000     0.613720000000     1.02415    
Co31     Co     0.531380000000     0.471880000000     0.614500000000     1.0947     
Co32     Co     0.674850000000     0.635600000000     0.529310000000     1.05388    
H1       H      0.536790000000     0.436170000000     0.781330000000     0.0312179  
H2       H      0.534210000000     0.433760000000     0.882640000000     0.0397365  
H3       H      0.576200000000     0.629070000000     0.879350000000     0.0464267  
H4       H      0.530950000000     0.636720000000     0.738580000000     0.078602   
H5       H      0.574320000000     0.683770000000     0.799640000000     0.0660511  
H6       H      0.622850000000     0.675210000000     0.748220000000     0.0800907  
H7       H      0.510410000000     0.456840000000     0.272990000000     0.031883   
H8       H      0.549860000000     0.457650000000     0.370820000000     0.0349644  
H9       H      0.575350000000     0.645710000000     0.389600000000     0.0513156  
H10      H      0.493650000000     0.648320000000     0.253750000000     0.080988   
H11      H      0.529450000000     0.688490000000     0.319890000000     0.0710255  
H12      H      0.584820000000     0.698210000000     0.265360000000     0.0843314  
H13      H      0.714830000000     0.927270000000     0.459850000000     0.0351402  
H14      H      0.741140000000     0.840230000000     0.459030000000     0.0422616  
H15      H      0.546150000000     0.708070000000     0.521430000000     0.0521016  
H16      H      0.480850000000     0.820380000000     0.493580000000     0.0824759  
H17      H      0.457550000000     0.735950000000     0.498980000000     0.0702217  
H18      H      0.487010000000     0.784180000000     0.560850000000     0.0843044  
H19      H      0.715950000000     0.389650000000     0.590200000000     0.0353424  
H20      H      0.712930000000     0.287790000000     0.590780000000     0.0399784  
H21      H      0.535840000000     0.199650000000     0.687150000000     0.040689   
H22      H      0.478740000000     0.296920000000     0.665450000000     0.0773959  
H23      H      0.499450000000     0.264290000000     0.728150000000     0.0677171  
H24      H      0.542680000000     0.351070000000     0.716180000000     0.0853423  
H25      H      0.669010000000     0.043190000000     0.891860000000     0.0287421  
H26      H      0.668110000000     0.019430000000     0.794940000000     0.0350052  
H27      H      0.486270000000     0.027740000000     0.761280000000     0.0430397  
H28      H      0.484690000000     0.102130000000     0.873390000000     0.0793688  
H29      H      0.426360000000     0.037210000000     0.828310000000     0.0658064  
H30      H      0.442260000000     0.018930000000     0.899440000000     0.0838338  
H31      H      0.479840000000     0.035180000000     0.273620000000     0.0119121  
H32      H      0.488250000000     0.039540000000     0.375240000000     0.0351746  
H33      H      0.626480000000     0.968170000000     0.380950000000     0.0413794  
H34      H      0.673480000000     0.988000000000     0.264150000000     0.0851436  
H35      H      0.626800000000     0.910890000000     0.299460000000     0.074166   
H36      H      0.596020000000     0.923390000000     0.231030000000     0.101676   
H37      H      0.476280000000     0.815020000000     0.038560000000     0.0395571  
H38      H      0.468160000000     0.714740000000     0.018390000000     0.0404309  
H39      H      0.679600000000     0.811580000000     0.986740000000     0.0435802  
H40      H      0.727550000000     0.962740000000     0.035010000000     0.0805698  
H41      H      0.742990000000     0.926430000000     0.977070000000     0.0718396  
H42      H      0.694490000000     0.966860000000     0.965420000000     0.0805142  
H43      H      0.456710000000     0.218170000000     0.109950000000     0.0346267  
H44      H      0.438780000000     0.304590000000     0.138250000000     0.0376732  
H45      H      0.643380000000     0.412010000000     0.201420000000     0.0426254  
H46      H      0.679310000000     0.276860000000     0.193080000000     0.0895864  
H47      H      0.710110000000     0.358930000000     0.215990000000     0.072099   
H48      H      0.646890000000     0.290520000000     0.253750000000     0.0807417  
H49      H      0.937700000000     0.264370000000     0.466120000000     0.031981   
H50      H      0.827940000000     0.171530000000     0.485710000000     0.0123597  
H51      H      0.729410000000     0.277210000000     0.431570000000     0.0453833  
H52      H      0.889790000000     0.419840000000     0.381150000000     0.0907735  
H53      H      0.797720000000     0.375490000000     0.372790000000     0.0694328  
H54      H      0.838080000000     0.418620000000     0.436330000000     0.083559   
H55      H      0.409750000000     0.802570000000     0.668920000000     0.0319113  
H56      H      0.315020000000     0.694410000000     0.648140000000     0.0348857  
H57      H      0.293130000000     0.759970000000     0.482420000000     0.0423546  
H58      H      0.446580000000     0.906480000000     0.484100000000     0.0914175  
H59      H      0.364530000000     0.861110000000     0.447950000000     0.0684987  
H60      H      0.377580000000     0.918980000000     0.499560000000     0.0891489  
H61      H      0.904180000000     0.540680000000     0.449870000000     0.045477   
H62      H      0.806610000000     0.551660000000     0.429240000000     0.0242882  
H63      H      0.877410000000     0.699090000000     0.549010000000     0.0529288  
H64      H      0.039930000000     0.700020000000     0.587010000000     0.0920536  
H65      H      0.997170000000     0.744480000000     0.585570000000     0.0794255  
H66      H      0.971060000000     0.675850000000     0.633450000000     0.0755718  
H67      H      0.455420000000     0.612830000000     0.496460000000     0.0362675  
H68      H      0.349780000000     0.606950000000     0.460410000000     0.0299372  
H69      H      0.240590000000     0.453610000000     0.578280000000     0.0424715  
H70      H      0.374510000000     0.482110000000     0.671030000000     0.0822102  
H71      H      0.289110000000     0.423640000000     0.649090000000     0.0636955  
H72      H      0.358220000000     0.417300000000     0.624730000000     0.0710591  
H73      H      0.126060000000     0.500010000000     0.738680000000     0.0403285  
H74      H      0.139560000000     0.519950000000     0.838320000000     0.0398414  
H75      H      0.971320000000     0.551810000000     0.827450000000     0.0480173  
H76      H      0.900350000000     0.477460000000     0.698630000000     0.0899779  
H77      H      0.904730000000     0.536430000000     0.745470000000     0.0745286  
H78      H      0.954810000000     0.562980000000     0.684110000000     0.0877422  
H79      H      0.177790000000     0.591090000000     0.342310000000     0.00978685 
H80      H      0.174510000000     0.610090000000     0.242500000000     0.0350528  
H81      H      0.036080000000     0.408020000000     0.217280000000     0.0480772  
H82      H      0.982610000000     0.363860000000     0.344010000000     0.0767318  
H83      H      0.012460000000     0.331450000000     0.293310000000     0.0722852  
H84      H      0.057490000000     0.358170000000     0.360960000000     0.0860291  
H85      H      0.693290000000     0.326250000000     0.995230000000     0.0348584  
H86      H      0.790910000000     0.435210000000     0.981180000000     0.0402153  
H87      H      0.907040000000     0.352990000000     0.932650000000     0.0513745  
H88      H      0.758890000000     0.191390000000     0.919520000000     0.0801971  
H89      H      0.849060000000     0.242100000000     0.908280000000     0.0739534  
H90      H      0.820600000000     0.203200000000     0.975150000000     0.0774674  
H91      H      0.339290000000     0.897830000000     0.176860000000     0.0317811  
H92      H      0.228040000000     0.798940000000     0.168340000000     0.0319937  
H93      H      0.252550000000     0.796960000000     0.992890000000     0.0412463  
H94      H      0.413050000000     0.890100000000     0.981880000000     0.0885865  
H95      H      0.337240000000     0.881650000000     0.946110000000     0.0679566  
H96      H      0.394620000000     0.955330000000     0.981920000000     0.0973368  
H97      H      0.879610000000     0.579420000000     0.143280000000     0.0333519  
H98      H      0.785660000000     0.587000000000     0.101560000000     0.0404754  
H99      H      0.678960000000     0.385060000000     0.066870000000     0.0535422  
H100     H      0.791030000000     0.350850000000     0.155810000000     0.0865927  
H101     H      0.719380000000     0.317460000000     0.104450000000     0.076524   
H102     H      0.804470000000     0.350790000000     0.083190000000     0.103568   
H103     H      0.268770000000     0.575300000000     0.956010000000     0.0339206  
H104     H      0.357480000000     0.553690000000     0.992660000000     0.0395532  
H105     H      0.366340000000     0.637790000000     0.148580000000     0.0404829  
H106     H      0.286650000000     0.666790000000     0.168430000000     0.0761896  
H107     H      0.287940000000     0.717490000000     0.109740000000     0.0853538  
H108     H      0.211690000000     0.641050000000     0.122800000000     0.094744   
H109     H      0.876090000000     0.702700000000     0.639320000000     0.0252205  
H110     H      0.979930000000     0.809750000000     0.630800000000     0.0328385  
H111     H      0.871100000000     0.900100000000     0.675970000000     0.0333133  
H112     H      0.748100000000     0.751650000000     0.745760000000     0.0802333  
H113     H      0.775860000000     0.836640000000     0.733560000000     0.0632596  
H114     H      0.712850000000     0.775900000000     0.686790000000     0.0719286  
H115     H      0.266460000000     0.303130000000     0.522060000000     0.0336828  
H116     H      0.373540000000     0.401240000000     0.523220000000     0.0364058  
H117     H      0.469080000000     0.304270000000     0.461110000000     0.0443921  
H118     H      0.303060000000     0.176670000000     0.404740000000     0.0861803  
H119     H      0.394600000000     0.210890000000     0.404570000000     0.0758447  
H120     H      0.345520000000     0.152110000000     0.456990000000     0.0933885  
H121     H      0.847320000000     0.106570000000     0.551810000000     0.0198285  
H122     H      0.918720000000     0.087740000000     0.496470000000     0.0386813  
H123     H      0.827530000000     0.891710000000     0.555730000000     0.0534571  
H124     H      0.681870000000     0.873940000000     0.601580000000     0.0858343  
H125     H      0.741440000000     0.847930000000     0.615120000000     0.0706639  
H126     H      0.738500000000     0.902740000000     0.663410000000     0.0748536  
H127     H      0.479200000000     0.196290000000     0.561270000000     0.0337262  
H128     H      0.379780000000     0.173650000000     0.611560000000     0.0286555  
H129     H      0.258930000000     0.002240000000     0.516120000000     0.0133849  
H130     H      0.400750000000     0.013500000000     0.441630000000     0.0796336  
H131     H      0.310630000000     0.965200000000     0.454820000000     0.066859   
H132     H      0.342390000000     0.036800000000     0.410620000000     0.0701954  
H133     H      0.995810000000     0.782520000000     0.433780000000     0.0383622  
H134     H      0.017250000000     0.692460000000     0.423040000000     0.0365278  
H135     H      0.189460000000     0.783590000000     0.538160000000     0.0425901  
H136     H      0.138120000000     0.891350000000     0.594430000000     0.0996823  
H137     H      0.174220000000     0.841000000000     0.610310000000     0.0696623  
H138     H      0.218920000000     0.910530000000     0.566460000000     0.0809874  
H139     H      0.969950000000     0.183730000000     0.551590000000     0.0258452  
H140     H      0.939150000000     0.264510000000     0.567620000000     0.0407129  
H141     H      0.123430000000     0.373760000000     0.665030000000     0.0430739  
H142     H      0.207090000000     0.295990000000     0.637990000000     0.0741275  
H143     H      0.193770000000     0.335150000000     0.694310000000     0.0633251  
H144     H      0.156470000000     0.248910000000     0.696560000000     0.0822745  
H145     H      0.187730000000     0.126880000000     0.763400000000     0.0304846  
H146     H      0.182730000000     0.138930000000     0.861670000000     0.0350767  
H147     H      0.966820000000     0.054210000000     0.844160000000     0.0434901  
H148     H      0.944440000000     0.997270000000     0.708200000000     0.0872548  
H149     H      0.905660000000     0.016430000000     0.761240000000     0.0681513  
H150     H      0.949210000000     0.075080000000     0.706620000000     0.0832137  
H151     H      0.173560000000     0.125060000000     0.359450000000     0.0342105  
H152     H      0.172230000000     0.134910000000     0.258360000000     0.0390122  
H153     H      0.019660000000     0.934270000000     0.246180000000     0.0543827  
H154     H      0.962360000000     0.905120000000     0.376430000000     0.106305   
H155     H      0.979420000000     0.866110000000     0.322550000000     0.0787046  
H156     H      0.033630000000     0.891460000000     0.385310000000     0.0908784  
H157     H      0.714000000000     0.818170000000     0.131440000000     0.03235    
H158     H      0.789910000000     0.919960000000     0.085310000000     0.0328819  
H159     H      0.859450000000     0.825030000000     0.985640000000     0.0399127  
H160     H      0.741300000000     0.672780000000     0.004960000000     0.0310559  
H161     H      0.831040000000     0.719830000000     0.998760000000     0.0711308  
H162     H      0.798500000000     0.680980000000     0.064740000000     0.081474   
H163     H      0.393330000000     0.274180000000     0.051430000000     0.0330934  
H164     H      0.287490000000     0.193550000000     0.092500000000     0.0428597  
H165     H      0.202150000000     0.314690000000     0.054260000000     0.046976   
H166     H      0.343740000000     0.426940000000     0.964000000000     0.0949948  
H167     H      0.253100000000     0.384990000000     0.971040000000     0.0719812  
H168     H      0.306750000000     0.442370000000     0.022710000000     0.0899962  
H169     H      0.685740000000     0.939440000000     0.167840000000     0.036296   
H170     H      0.777840000000     0.916560000000     0.183890000000     0.0339225  
H171     H      0.920060000000     0.118360000000     0.199230000000     0.0374292  
H172     H      0.842550000000     0.188840000000     0.154540000000     0.0844441  
H173     H      0.786780000000     0.160870000000     0.212320000000     0.0867018  
H174     H      0.876390000000     0.187260000000     0.224350000000     0.0700975  
H175     H      0.356680000000     0.037230000000     0.960850000000     0.0272019  
H176     H      0.244050000000     0.021870000000     0.936570000000     0.0267089  
H177     H      0.213570000000     0.028760000000     0.109390000000     0.0532835  
H178     H      0.363170000000     0.094550000000     0.166030000000     0.0795529  
H179     H      0.283980000000     0.022240000000     0.180050000000     0.0708161  
H180     H      0.355920000000     0.015610000000     0.164310000000     0.0828258  
H181     H      0.931880000000     0.785170000000     0.120280000000     0.0367853  
H182     H      0.929210000000     0.684760000000     0.103430000000     0.030797   
H183     H      0.008340000000     0.754390000000     0.941780000000     0.0404918  
H184     H      0.071800000000     0.901530000000     0.946500000000     0.0775576  
H185     H      0.004630000000     0.843950000000     0.901240000000     0.0648052  
H186     H      0.989490000000     0.896380000000     0.941030000000     0.0417303  
H187     H      0.089590000000     0.266260000000     0.947960000000     0.0320216  
H188     H      0.093030000000     0.367660000000     0.948520000000     0.0475855  
H189     H      0.923380000000     0.287010000000     0.054050000000     0.0490769  
H190     H      0.909550000000     0.156330000000     0.097180000000     0.089795   
H191     H      0.850960000000     0.171140000000     0.055810000000     0.072321   
H192     H      0.878590000000     0.119040000000     0.029170000000     0.0912009  
N1       N      0.558060000000     0.532340000000     0.888010000000    -0.187075   
N2       N      0.559540000000     0.535220000000     0.770530000000    -0.204107   
N3       N      0.567970000000     0.552870000000     0.386800000000    -0.177579   
N4       N      0.525020000000     0.552700000000     0.274050000000    -0.201041   
N5       N      0.648100000000     0.770390000000     0.495890000000    -0.176206   
N6       N      0.617410000000     0.867720000000     0.496730000000    -0.211365   
N7       N      0.622090000000     0.235530000000     0.636560000000    -0.179817   
N8       N      0.622610000000     0.353510000000     0.633010000000    -0.200793   
N9       N      0.577840000000     0.022810000000     0.770830000000    -0.184033   
N10      N      0.578230000000     0.050870000000     0.883540000000    -0.213235   
N11      N      0.560510000000     0.006970000000     0.384680000000    -0.181568   
N12      N      0.546700000000     0.997160000000     0.268580000000    -0.201794   
N13      N      0.575360000000     0.755480000000     0.008010000000    -0.180829   
N14      N      0.584370000000     0.873470000000     0.028430000000    -0.185519   
N15      N      0.542730000000     0.368080000000     0.163620000000    -0.173616   
N16      N      0.559500000000     0.262020000000     0.144360000000    -0.196339   
N17      N      0.772430000000     0.220910000000     0.465690000000    -0.183801   
N18      N      0.898360000000     0.328490000000     0.447830000000    -0.204699   
N19      N      0.296640000000     0.719440000000     0.564140000000    -0.183609   
N20      N      0.403160000000     0.844520000000     0.588510000000    -0.207983   
N21      N      0.832360000000     0.621150000000     0.492650000000    -0.182343   
N22      N      0.940080000000     0.601720000000     0.523210000000    -0.20752    
N23      N      0.287960000000     0.532210000000     0.518440000000    -0.181691   
N24      N      0.409940000000     0.541560000000     0.562820000000    -0.206406   
N25      N      0.057630000000     0.539260000000     0.840080000000    -0.1736     
N26      N      0.038900000000     0.511880000000     0.724000000000    -0.197829   
N27      N      0.101360000000     0.510980000000     0.222930000000    -0.182505   
N28      N      0.107170000000     0.488690000000     0.338730000000    -0.201489   
N29      N      0.858300000000     0.401800000000     0.962190000000    -0.175543   
N30      N      0.748820000000     0.277660000000     0.983170000000    -0.206236   
N31      N      0.232490000000     0.789590000000     0.080290000000    -0.192885   
N32      N      0.361670000000     0.902780000000     0.090030000000    -0.198506   
N33      N      0.727570000000     0.487930000000     0.075860000000    -0.156173   
N34      N      0.839440000000     0.479300000000     0.123320000000    -0.185396   
N35      N      0.365050000000     0.590700000000     0.074650000000    -0.185393   
N36      N      0.264070000000     0.616860000000     0.031700000000    -0.197234   
N37      N      0.930550000000     0.862930000000     0.645020000000    -0.17557    
N38      N      0.813290000000     0.741160000000     0.657000000000    -0.198692   
N39      N      0.430800000000     0.357680000000     0.499210000000    -0.185424   
N40      N      0.304550000000     0.243550000000     0.494390000000    -0.205008   
N41      N      0.880200000000     0.988890000000     0.524190000000    -0.182524   
N42      N      0.791460000000     0.009270000000     0.585410000000    -0.208723   
N43      N      0.312930000000     0.083130000000     0.571080000000    -0.187422   
N44      N      0.426660000000     0.111040000000     0.511240000000    -0.199732   
N45      N      0.103700000000     0.730970000000     0.481030000000    -0.183229   
N46      N      0.078440000000     0.832230000000     0.494760000000    -0.188651   
N47      N      0.032090000000     0.326780000000     0.613520000000    -0.185323   
N48      N      0.065180000000     0.230940000000     0.599810000000    -0.206854   
N49      N      0.073900000000     0.095330000000     0.859470000000    -0.190294   
N50      N      0.079440000000     0.082930000000     0.745380000000    -0.204695   
N51      N      0.093410000000     0.036000000000     0.245790000000    -0.184327   
N52      N      0.092040000000     0.025510000000     0.361060000000    -0.212566   
N53      N      0.833350000000     0.880880000000     0.034660000000    -0.183291   
N54      N      0.745390000000     0.761340000000     0.088560000000    -0.200254   
N55      N      0.238730000000     0.250630000000     0.080300000000    -0.188498   
N56      N      0.362630000000     0.344830000000     0.036430000000    -0.201361   
N57      N      0.855600000000     0.016500000000     0.184050000000    -0.174094   
N58      N      0.750610000000     0.043610000000     0.170770000000    -0.207132   
N59      N      0.224350000000     0.029160000000     0.021240000000    -0.189446   
N60      N      0.352810000000     0.048330000000     0.049520000000    -0.208376   
N61      N      0.974440000000     0.715130000000     0.023130000000    -0.188358   
N62      N      0.978290000000     0.830530000000     0.043210000000    -0.201328   
N63      N      0.012630000000     0.335920000000     0.006560000000    -0.16478    
N64      N      0.007900000000     0.218190000000     0.004300000000    -0.20457    
O1       O      0.994470000000     0.135570000000     0.061970000000    -0.479081   
O2       O      0.934450000000     0.940180000000     0.993450000000    -0.444428   
O3       O      0.122340000000     0.119930000000     0.947900000000    -0.473512   
O4       O      0.901770000000     0.953800000000     0.157690000000    -0.39281    
O5       O      0.017440000000     0.043650000000     0.936850000000    -0.473224   
O6       O      0.959100000000     0.058780000000     0.147150000000    -0.531767   
O7       O      0.907570000000     0.988220000000     0.050450000000    -0.433635   
O8       O      0.083170000000     0.179470000000     0.010590000000    -0.433256   
O9       O      0.086480000000     0.101770000000     0.177770000000    -0.440987   
O10      O      0.129970000000     0.022630000000     0.971780000000    -0.435066   
O11      O      0.162300000000     0.146780000000     0.100690000000    -0.466013   
O12      O      0.960550000000     0.904410000000     0.089120000000    -0.38285    
O13      O      0.047890000000     0.938800000000     0.038460000000    -0.4751     
O14      O      0.127340000000     0.209320000000     0.104230000000    -0.395468   
O15      O      0.036590000000     0.997480000000     0.162340000000    -0.452234   
O16      O      0.180110000000     0.090210000000     0.039050000000    -0.501842   
O17      O      0.049820000000     0.053260000000     0.055410000000    -0.557804   
O18      O      0.152330000000     0.052120000000     0.443160000000    -0.492611   
O19      O      0.049240000000     0.143510000000     0.550300000000    -0.443997   
O20      O      0.941750000000     0.937810000000     0.514550000000    -0.35665    
O21      O      0.208880000000     0.189380000000     0.544320000000    -0.463666   
O22      O      0.988650000000     0.037590000000     0.500760000000    -0.433192   
O23      O      0.243490000000     0.131540000000     0.506530000000    -0.420151   
O24      O      0.126750000000     0.179460000000     0.616080000000    -0.46628    
O25      O      0.044420000000     0.985170000000     0.445650000000    -0.440627   
O26      O      0.199840000000     0.022270000000     0.585090000000    -0.463535   
O27      O      0.968560000000     0.967050000000     0.610360000000    -0.423636   
O28      O      0.007790000000     0.875270000000     0.496600000000    -0.39314    
O29      O      0.140570000000     0.084770000000     0.672190000000    -0.459875   
O30      O      0.040890000000     0.076410000000     0.653740000000    -0.454919   
O31      O      0.119130000000     0.940960000000     0.507110000000    -0.483655   
O32      O      0.251240000000     0.118720000000     0.611670000000    -0.435292   
O33      O      0.029230000000     0.922900000000     0.597440000000    -0.425393   
O34      O      0.099820000000     0.054090000000     0.553990000000    -0.521062   
O35      O      0.974440000000     0.465100000000     0.964230000000    -0.407978   
O36      O      0.010250000000     0.655150000000     0.072580000000    -0.495988   
O37      O      0.910920000000     0.436620000000     0.117560000000    -0.384756   
O38      O      0.044950000000     0.586200000000     0.917620000000    -0.438591   
O39      O      0.955750000000     0.542460000000     0.123900000000    -0.481983   
O40      O      0.102080000000     0.537730000000     0.929930000000    -0.38886    
O41      O      0.027050000000     0.667060000000     0.981720000000    -0.431846   
O42      O      0.919750000000     0.488630000000     0.018110000000    -0.402669   
O43      O      0.152170000000     0.548070000000     0.039750000000    -0.445744   
O44      O      0.090280000000     0.582790000000     0.163650000000    -0.488385   
O45      O      0.988450000000     0.409750000000     0.046340000000    -0.385506   
O46      O      0.152740000000     0.708950000000     0.025530000000    -0.516772   
O47      O      0.138310000000     0.696590000000     0.114490000000    -0.449576   
O48      O      0.073840000000     0.443660000000     0.990060000000    -0.453342   
O49      O      0.182140000000     0.632740000000     0.981320000000    -0.399542   
O50      O      0.042460000000     0.484200000000     0.136490000000    -0.423398   
O51      O      0.058360000000     0.574810000000     0.038620000000    -0.622035   
O52      O      0.007770000000     0.379520000000     0.487660000000    -0.44407    
O53      O      0.127150000000     0.667200000000     0.538930000000    -0.468792   
O54      O      0.965090000000     0.522780000000     0.522610000000    -0.512959   
O55      O      0.079150000000     0.526250000000     0.410830000000    -0.449694   
O56      O      0.019100000000     0.592690000000     0.587280000000    -0.432428   
O57      O      0.114670000000     0.459100000000     0.431680000000    -0.418547   
O58      O      0.088550000000     0.631270000000     0.454230000000    -0.407424   
O59      O      0.955470000000     0.432740000000     0.476440000000    -0.448105   
O60      O      0.182220000000     0.503640000000     0.539650000000    -0.481487   
O61      O      0.097620000000     0.535660000000     0.644380000000    -0.433073   
O62      O      0.978310000000     0.382620000000     0.581440000000    -0.431497   
O63      O      0.213080000000     0.652640000000     0.502790000000    -0.466493   
O64      O      0.205810000000     0.620000000000     0.590010000000    -0.415866   
O65      O      0.085750000000     0.432600000000     0.592430000000    -0.440762   
O66      O      0.214700000000     0.557500000000     0.462100000000    -0.399884   
O67      O      0.988120000000     0.487690000000     0.632570000000    -0.414671   
O68      O      0.081780000000     0.524520000000     0.526750000000    -0.521346   
O69      O      0.450970000000     0.097560000000     0.106220000000    -0.459281   
O70      O      0.629160000000     0.985630000000     0.039280000000    -0.436997   
O71      O      0.546630000000     0.087600000000     0.957040000000    -0.483273   
O72      O      0.472280000000     0.964860000000     0.063140000000    -0.45523    
O73      O      0.632880000000     0.073680000000     0.969760000000    -0.500241   
O74      O      0.445980000000     0.991010000000     0.139980000000    -0.424117   
O75      O      0.544320000000     0.914230000000     0.090610000000    -0.432276   
O76      O      0.457790000000     0.072740000000     0.022850000000    -0.481144   
O77      O      0.576640000000     0.071590000000     0.197840000000    -0.449563   
O78      O      0.716570000000     0.179180000000     0.028110000000    -0.43675    
O79      O      0.548980000000     0.195790000000     0.073020000000    -0.422385   
O80      O      0.642660000000     0.011710000000     0.137250000000    -0.449025   
O81      O      0.720730000000     0.104300000000     0.111260000000    -0.44516    
O82      O      0.579730000000     0.177020000000     0.157370000000    -0.421889   
O83      O      0.532630000000     0.971100000000     0.174970000000    -0.385986   
O84      O      0.638250000000     0.203910000000     0.002800000000    -0.47107    
O85      O      0.580200000000     0.085750000000     0.080850000000    -0.538627   
O86      O      0.489290000000     0.074040000000     0.555140000000    -0.559214   
O87      O      0.667040000000     0.974900000000     0.516250000000    -0.474903   
O88      O      0.539490000000     0.032080000000     0.469450000000    -0.452054   
O89      O      0.502710000000     0.910240000000     0.637110000000    -0.457388   
O90      O      0.641120000000     0.047670000000     0.456720000000    -0.448525   
O91      O      0.461120000000     0.956120000000     0.580720000000    -0.457421   
O92      O      0.574790000000     0.907280000000     0.558300000000    -0.469122   
O93      O      0.533350000000     0.138050000000     0.483360000000    -0.38917    
O94      O      0.528360000000     0.006530000000     0.683300000000    -0.465996   
O95      O      0.722690000000     0.147880000000     0.535950000000    -0.468451   
O96      O      0.622930000000     0.170190000000     0.571470000000    -0.429781   
O97      O      0.689190000000     0.974270000000     0.622820000000    -0.461084   
O98      O      0.743310000000     0.071870000000     0.595720000000    -0.447972   
O99      O      0.567900000000     0.123760000000     0.646360000000    -0.4373     
O100     O      0.621590000000     0.002500000000     0.694400000000    -0.440196   
O101     O      0.655830000000     0.155500000000     0.473150000000    -0.386821   
O102     O      0.606770000000     0.041600000000     0.575460000000    -0.52811    
O103     O      0.481530000000     0.395910000000     0.048310000000    -0.357642   
O104     O      0.526070000000     0.657720000000     0.051460000000    -0.459363   
O105     O      0.414370000000     0.528410000000     0.074300000000    -0.458469   
O106     O      0.606050000000     0.590440000000     0.966860000000    -0.479757   
O107     O      0.449510000000     0.597890000000     0.137710000000    -0.453798   
O108     O      0.550940000000     0.487250000000     0.976670000000    -0.426828   
O109     O      0.624630000000     0.690190000000     0.017660000000    -0.389967   
O110     O      0.435880000000     0.452880000000     0.034940000000    -0.444421   
O111     O      0.616670000000     0.442890000000     0.039800000000    -0.387275   
O112     O      0.562990000000     0.609190000000     0.192540000000    -0.470381   
O113     O      0.483450000000     0.421600000000     0.142320000000    -0.418815   
O114     O      0.691120000000     0.650470000000     0.105140000000    -0.448034   
O115     O      0.639770000000     0.700090000000     0.121120000000    -0.446142   
O116     O      0.591520000000     0.473870000000     0.135460000000    -0.408885   
O117     O      0.676690000000     0.549810000000     0.050720000000    -0.446569   
O118     O      0.471290000000     0.512040000000     0.187330000000    -0.423869   
O119     O      0.547020000000     0.553720000000     0.080550000000    -0.520736   
O120     O      0.548880000000     0.411690000000     0.514890000000    -0.426629   
O121     O      0.639220000000     0.690680000000     0.555690000000    -0.553161   
O122     O      0.475920000000     0.510940000000     0.619430000000    -0.464444   
O123     O      0.603520000000     0.600310000000     0.473020000000    -0.4291     
O124     O      0.526200000000     0.599570000000     0.572800000000    -0.460755   
O125     O      0.621190000000     0.520740000000     0.455900000000    -0.436324   
O126     O      0.710890000000     0.718900000000     0.490350000000    -0.373884   
O127     O      0.492670000000     0.453400000000     0.542770000000    -0.48625    
O128     O      0.735080000000     0.551200000000     0.533850000000    -0.460303   
O129     O      0.575540000000     0.584590000000     0.682960000000    -0.456098   
O130     O      0.561520000000     0.407380000000     0.620000000000    -0.441976   
O131     O      0.752440000000     0.674340000000     0.583760000000    -0.420224   
O132     O      0.696460000000     0.672800000000     0.653960000000    -0.445751   
O133     O      0.663890000000     0.454470000000     0.592120000000    -0.446992   
O134     O      0.735730000000     0.627890000000     0.482530000000    -0.412001   
O135     O      0.564500000000     0.489160000000     0.689710000000    -0.463823   
O136     O      0.621990000000     0.551370000000     0.577780000000    -0.513687   


