data_structure

_audit_creation_method RASPA-1.0
_audit_creation_date 2023-6-4
_audit_author_name 'Poobodin Mano'

_cell_length_a    22.5657
_cell_length_b    23.3371
_cell_length_c    23.7932
_cell_angle_alpha 87.1371
_cell_angle_beta  93.8182
_cell_angle_gamma 120.436
_cell_volume      10777.4

_symmetry_cell_setting          triclinic
_symmetry_space_group_name_Hall 'P 1'
_symmetry_space_group_name_H-M  'P 1'
_symmetry_Int_Tables_number     1

_symmetry_equiv_pos_as_xyz 'x,y,z'

loop_
_atom_site_label
_atom_site_type_symbol
_atom_site_fract_x
_atom_site_fract_y
_atom_site_fract_z
_atom_site_charge
Br1      Br     0.728750000000     0.556260000000     0.785950000000    -0.189951   
Br2      Br     0.773540000000     0.729200000000     0.258140000000    -0.2012     
Br3      Br     0.708210000000     0.812450000000     0.439630000000    -0.24497    
Br4      Br     0.361080000000     0.151340000000     0.503780000000    -0.242249   
Br5      Br     0.568090000000     0.234500000000     0.822450000000    -0.234593   
Br6      Br     0.560750000000     0.193660000000     0.327410000000    -0.23133    
Br7      Br     0.654520000000     0.933420000000     0.895010000000    -0.220972   
Br8      Br     0.706740000000     0.410820000000     0.219210000000    -0.232828   
Br9      Br     0.816820000000     0.337490000000     0.662550000000    -0.191532   
Br10     Br     0.274310000000     0.729900000000     0.775940000000    -0.237501   
Br11     Br     0.790690000000     0.491160000000     0.640640000000    -0.175687   
Br12     Br     0.291120000000     0.469630000000     0.515550000000    -0.199251   
Br13     Br     0.044080000000     0.402430000000     0.762080000000    -0.198332   
Br14     Br     0.970570000000     0.387410000000     0.259280000000    -0.212507   
Br15     Br     0.918400000000     0.292950000000     0.017400000000    -0.224449   
Br16     Br     0.245340000000     0.848710000000     0.188460000000    -0.249144   
Br17     Br     0.951660000000     0.641830000000     0.235720000000    -0.191042   
Br18     Br     0.418280000000     0.595230000000     0.989370000000    -0.195514   
Br19     Br     0.713790000000     0.816210000000     0.694130000000    -0.223182   
Br20     Br     0.196300000000     0.292420000000     0.438920000000    -0.194996   
Br21     Br     0.771670000000     0.024050000000     0.683860000000    -0.210076   
Br22     Br     0.163760000000     0.869620000000     0.631370000000    -0.239601   
Br23     Br     0.038770000000     0.690080000000     0.372610000000    -0.202785   
Br24     Br     0.953510000000     0.275230000000     0.480280000000    -0.224719   
Br25     Br     0.921320000000     0.869600000000     0.824530000000    -0.221151   
Br26     Br     0.105760000000     0.172710000000     0.325180000000    -0.198743   
Br27     Br     0.922180000000     0.756460000000     0.978420000000    -0.221499   
Br28     Br     0.288640000000     0.318570000000     0.958810000000    -0.192296   
Br29     Br     0.834720000000     0.118490000000     0.948380000000    -0.213159   
Br30     Br     0.307990000000     0.203500000000     0.862590000000    -0.222335   
Br31     Br     0.004160000000     0.818700000000     0.190280000000    -0.223528   
Br32     Br     0.208380000000     0.399890000000     0.060560000000    -0.233529   
C1       C      0.091910000000     0.202030000000     0.045000000000     0.504231   
C2       C      0.954160000000     0.909540000000     0.989340000000     0.438473   
C3       C      0.044410000000     0.026460000000     0.901840000000     0.478507   
C4       C      0.973880000000     0.078990000000     0.100910000000     0.457443   
C5       C      0.066010000000     0.010620000000     0.180880000000     0.476609   
C6       C      0.218390000000     0.085910000000     0.952810000000     0.462276   
C7       C      0.239950000000     0.191900000000     0.053610000000     0.488987   
C8       C      0.086690000000     0.922820000000     0.093290000000     0.472438   
C9       C      0.005760000000     0.021630000000     0.375640000000     0.499965   
C10      C      0.076470000000     0.157920000000     0.573790000000     0.444505   
C11      C      0.885970000000     0.000290000000     0.521150000000     0.471557   
C12      C      0.203920000000     0.158700000000     0.503780000000     0.472776   
C13      C      0.174320000000     0.989640000000     0.536620000000     0.465818   
C14      C      0.935460000000     0.890210000000     0.592840000000     0.468428   
C15      C      0.026970000000     0.888500000000     0.444840000000     0.466969   
C16      C      0.031030000000     0.030800000000     0.680760000000     0.40231    
C17      C      0.983700000000     0.451360000000     0.986130000000     0.454825   
C18      C      0.092940000000     0.708860000000     0.063140000000     0.473495   
C19      C      0.983700000000     0.579720000000     0.133540000000     0.447051   
C20      C      0.124960000000     0.574460000000     0.925020000000     0.487059   
C21      C      0.267870000000     0.614180000000     0.033430000000     0.486225   
C22      C      0.090820000000     0.521770000000     0.202520000000     0.452565   
C23      C      0.071140000000     0.417700000000     0.100050000000     0.474805   
C24      C      0.256170000000     0.729470000000     0.110890000000     0.467962   
C25      C      0.925500000000     0.395600000000     0.564760000000     0.369038   
C26      C      0.106920000000     0.712340000000     0.507430000000     0.479198   
C27      C      0.941290000000     0.548580000000     0.578600000000     0.475772   
C28      C      0.108030000000     0.538970000000     0.434530000000     0.482444   
C29      C      0.218830000000     0.551780000000     0.564140000000     0.474311   
C30      C      0.040060000000     0.532810000000     0.706970000000     0.48121    
C31      C      0.060380000000     0.386340000000     0.567380000000     0.376001   
C32      C      0.217290000000     0.715680000000     0.630890000000     0.494886   
C33      C      0.457600000000     0.106280000000     0.971890000000     0.445498   
C34      C      0.607730000000     0.954820000000     0.012660000000     0.469154   
C35      C      0.586890000000     0.125670000000     0.893190000000     0.471315   
C36      C      0.482080000000     0.943960000000     0.095970000000     0.454906   
C37      C      0.566570000000     0.088320000000     0.176340000000     0.457266   
C38      C      0.735390000000     0.226390000000     0.976560000000     0.462593   
C39      C      0.554500000000     0.198080000000     0.098730000000     0.450098   
C40      C      0.750630000000     0.105130000000     0.056510000000     0.483757   
C41      C      0.397950000000     0.985620000000     0.531430000000     0.461199   
C42      C      0.580090000000     0.923650000000     0.522800000000     0.471818   
C43      C      0.536090000000     0.059720000000     0.409530000000     0.483778   
C44      C      0.444730000000     0.936530000000     0.676950000000     0.408398   
C45      C      0.609520000000     0.097990000000     0.687940000000     0.475299   
C46      C      0.664090000000     0.199490000000     0.492270000000     0.51944    
C47      C      0.479710000000     0.138000000000     0.606160000000     0.466594   
C48      C      0.724930000000     0.075000000000     0.569860000000     0.501777   
C49      C      0.473940000000     0.440700000000     0.042180000000     0.500604   
C50      C      0.613200000000     0.715240000000     0.015790000000     0.426034   
C51      C      0.502460000000     0.633970000000     0.140560000000     0.414293   
C52      C      0.652070000000     0.581100000000     0.939730000000     0.499624   
C53      C      0.767530000000     0.574260000000     0.061610000000     0.519482   
C54      C      0.632050000000     0.594050000000     0.216950000000     0.498765   
C55      C      0.588920000000     0.425000000000     0.134490000000     0.487133   
C56      C      0.748640000000     0.749150000000     0.112430000000     0.426969   
C57      C      0.420620000000     0.413710000000     0.530490000000     0.477248   
C58      C      0.600860000000     0.698470000000     0.519300000000     0.452989   
C59      C      0.428350000000     0.517030000000     0.624860000000     0.46864    
C60      C      0.619010000000     0.600970000000     0.432120000000     0.470658   
C61      C      0.697230000000     0.524820000000     0.519560000000     0.473287   
C62      C      0.588030000000     0.560160000000     0.708260000000     0.470713   
C63      C      0.552420000000     0.387940000000     0.570570000000     0.466347   
C64      C      0.699970000000     0.687050000000     0.637360000000     0.447641   
C65      C      0.665630000000     0.643120000000     0.848790000000    -0.00778475 
C66      C      0.612220000000     0.517210000000     0.853720000000    -0.0372536  
C67      C      0.620350000000     0.629150000000     0.793500000000    -0.00370429 
C68      C      0.631620000000     0.525900000000     0.792510000000     0.117903   
C69      C      0.579440000000     0.545380000000     0.341720000000     0.000544446
C70      C      0.677730000000     0.665720000000     0.347220000000    -0.0461031  
C71      C      0.623070000000     0.532050000000     0.304310000000    -0.0134206  
C72      C      0.712920000000     0.649980000000     0.301900000000     0.118161   
C73      C      0.517230000000     0.800980000000     0.519010000000    -0.00896018 
C74      C      0.627030000000     0.866160000000     0.470650000000    -0.0403023  
C75      C      0.541520000000     0.755190000000     0.545300000000    -0.00994384 
C76      C      0.653380000000     0.820080000000     0.495820000000     0.114782   
C77      C      0.526360000000     0.290800000000     0.633940000000    -0.0116234  
C78      C      0.479470000000     0.278220000000     0.530950000000    -0.046599   
C79      C      0.461170000000     0.222860000000     0.641230000000    -0.0065646  
C80      C      0.453500000000     0.202970000000     0.537240000000     0.126449   
C81      C      0.683610000000     0.126590000000     0.773630000000    -0.0173151  
C82      C      0.627680000000     0.191370000000     0.745200000000    -0.038585   
C83      C      0.634720000000     0.092240000000     0.821390000000     0.0054217  
C84      C      0.580050000000     0.163550000000     0.795010000000     0.112643   
C85      C      0.613270000000     0.089070000000     0.272870000000    -0.0121016  
C86      C      0.496790000000     0.080430000000     0.255230000000    -0.0382523  
C87      C      0.578120000000     0.042310000000     0.322820000000     0.00218413 
C88      C      0.505520000000     0.097660000000     0.318450000000     0.116244   
C89      C      0.614070000000     0.808750000000     0.059240000000    -0.0207782  
C90      C      0.630590000000     0.815670000000     0.957290000000    -0.0401541  
C91      C      0.575580000000     0.846420000000     0.052180000000    -0.0047322  
C92      C      0.601250000000     0.864830000000     0.950770000000     0.111069   
C93      C      0.495930000000     0.245780000000     0.148160000000    -0.0117521  
C94      C      0.621330000000     0.283890000000     0.169790000000    -0.0522879  
C95      C      0.517120000000     0.312040000000     0.177310000000    -0.0074694  
C96      C      0.642590000000     0.357140000000     0.159000000000     0.12194    
C97      C      0.785020000000     0.274770000000     0.471120000000    -0.00694984 
C98      C      0.736990000000     0.279170000000     0.563680000000    -0.0334914  
C99      C      0.840580000000     0.345520000000     0.486900000000    -0.0099712  
C100     C      0.809770000000     0.301990000000     0.587770000000     0.106732   
C101     C      0.401590000000     0.816980000000     0.679070000000    -0.0149157  
C102     C      0.334000000000     0.860810000000     0.722300000000    -0.0440679  
C103     C      0.342610000000     0.780670000000     0.635910000000     0.00262109 
C104     C      0.273790000000     0.787680000000     0.714170000000     0.116648   
C105     C      0.817960000000     0.582620000000     0.498770000000    -0.00486662 
C106     C      0.754400000000     0.459340000000     0.523910000000    -0.034223   
C107     C      0.878880000000     0.571120000000     0.499940000000    -0.00823914 
C108     C      0.814080000000     0.474960000000     0.568120000000     0.109683   
C109     C      0.379260000000     0.586240000000     0.641290000000    -0.00650224 
C110     C      0.303730000000     0.461270000000     0.636560000000    -0.036457   
C111     C      0.309170000000     0.581530000000     0.639610000000    -0.00693847 
C112     C      0.259800000000     0.472370000000     0.589030000000     0.111895   
C113     C      0.086000000000     0.608340000000     0.836470000000    -0.0164513  
C114     C      0.107880000000     0.512040000000     0.838110000000    -0.0433733  
C115     C      0.022500000000     0.569030000000     0.797270000000    -0.00517498 
C116     C      0.042620000000     0.474380000000     0.799770000000     0.115503   
C117     C      0.169720000000     0.548300000000     0.349820000000    -0.00845724 
C118     C      0.046360000000     0.463250000000     0.354710000000    -0.0400292  
C119     C      0.158290000000     0.566070000000     0.289420000000    -0.00722675 
C120     C      0.031560000000     0.474780000000     0.292000000000     0.112228   
C121     C      0.800490000000     0.348610000000     0.980510000000    -0.00496027 
C122     C      0.841190000000     0.289790000000     0.920860000000    -0.0400344  
C123     C      0.862010000000     0.409630000000     0.954260000000    -0.0110566  
C124     C      0.914050000000     0.336670000000     0.947350000000     0.118049   
C125     C      0.429700000000     0.846740000000     0.160740000000    -0.00830652 
C126     C      0.370090000000     0.910700000000     0.129960000000    -0.0329528  
C127     C      0.357560000000     0.791400000000     0.178680000000    -0.0087967  
C128     C      0.299350000000     0.847110000000     0.128450000000     0.112225   
C129     C      0.831690000000     0.514450000000     0.070410000000    -0.0112018  
C130     C      0.855110000000     0.606730000000     0.139090000000    -0.0395329  
C131     C      0.864480000000     0.489560000000     0.116590000000     0.00200351 
C132     C      0.887590000000     0.576950000000     0.181340000000     0.106518   
C133     C      0.449130000000     0.697240000000     0.099500000000    -0.0165137  
C134     C      0.380140000000     0.572480000000     0.106190000000    -0.0356139  
C135     C      0.379280000000     0.690890000000     0.078690000000    -0.0059547  
C136     C      0.353370000000     0.578980000000     0.046380000000     0.11694    
C137     C      0.893980000000     0.786540000000     0.648030000000    -0.0120139  
C138     C      0.849320000000     0.861040000000     0.663420000000    -0.0419788  
C139     C      0.822240000000     0.730850000000     0.629880000000    -0.00518811 
C140     C      0.775420000000     0.809370000000     0.644360000000     0.11579    
C141     C      0.310080000000     0.324950000000     0.561970000000    -0.0101946  
C142     C      0.338700000000     0.334640000000     0.459500000000    -0.0342298  
C143     C      0.288160000000     0.252470000000     0.559270000000    -0.00241053 
C144     C      0.267110000000     0.269420000000     0.454310000000     0.116248   
C145     C      0.815510000000     0.048140000000     0.486180000000    -0.0110246  
C146     C      0.789960000000     0.981570000000     0.576650000000    -0.0406641  
C147     C      0.829360000000     0.108570000000     0.520240000000    -0.0121419  
C148     C      0.809370000000     0.043840000000     0.609120000000     0.11747    
C149     C      0.296450000000     0.965550000000     0.472650000000    -0.0158672  
C150     C      0.283350000000     0.908990000000     0.568590000000    -0.0397776  
C151     C      0.219870000000     0.937190000000     0.479150000000    -8.32424e-07
C152     C      0.236370000000     0.935720000000     0.585220000000     0.116859   
C153     C      0.985430000000     0.771240000000     0.469810000000    -0.00767485 
C154     C      0.074610000000     0.824870000000     0.398880000000    -0.0407427  
C155     C      0.034110000000     0.761130000000     0.510070000000    -0.00855348 
C156     C      0.091930000000     0.768480000000     0.418590000000     0.108881   
C157     C      0.122910000000     0.272010000000     0.612580000000    -0.0119871  
C158     C      0.045280000000     0.234240000000     0.524620000000    -0.052102   
C159     C      0.087030000000     0.310750000000     0.628380000000    -0.0131104  
C160     C      0.006340000000     0.265540000000     0.545230000000     0.117026   
C161     C      0.958440000000     0.017300000000     0.759000000000    -0.0148811  
C162     C      0.039210000000     0.970290000000     0.764620000000    -0.0440917  
C163     C      0.976970000000     0.037170000000     0.820960000000     0.00638549 
C164     C      0.012180000000     0.949020000000     0.823810000000     0.117035   
C165     C      0.999710000000     0.947880000000     0.262540000000    -0.0109777  
C166     C      0.104790000000     0.061460000000     0.272940000000    -0.0366714  
C167     C      0.955350000000     0.974680000000     0.283120000000    -0.00628816 
C168     C      0.057100000000     0.086760000000     0.288420000000     0.106282   
C169     C      0.816990000000     0.862570000000     0.066500000000    -0.000583846
C170     C      0.862070000000     0.784120000000     0.073820000000    -0.0758306  
C171     C      0.831880000000     0.871930000000     0.002860000000    -0.0261753  
C172     C      0.867990000000     0.789370000000     0.009510000000     0.125833   
C173     C      0.369890000000     0.361250000000     0.091810000000    -0.0070649  
C174     C      0.410450000000     0.327050000000     0.009260000000    -0.0348728  
C175     C      0.333960000000     0.285900000000     0.106140000000     0.00244416 
C176     C      0.334770000000     0.276040000000     0.000220000000     0.117152   
C177     C      0.906460000000     0.122140000000     0.143520000000    -0.0120023  
C178     C      0.922210000000     0.129570000000     0.039700000000    -0.0499072  
C179     C      0.829590000000     0.099930000000     0.129940000000    -0.00791655 
C180     C      0.845940000000     0.092440000000     0.026520000000     0.124725   
C181     C      0.332500000000     0.035530000000     0.969890000000    -0.0183059  
C182     C      0.387890000000     0.154850000000     0.930890000000    -0.0444154  
C183     C      0.269270000000     0.018540000000     0.931170000000     0.00210686 
C184     C      0.321540000000     0.131540000000     0.892570000000     0.110509   
C185     C      0.103500000000     0.810500000000     0.023110000000    -0.0145689  
C186     C      0.025570000000     0.751380000000     0.103160000000    -0.0456285  
C187     C      0.146480000000     0.868950000000     0.061660000000    -0.00639426 
C188     C      0.064330000000     0.813900000000     0.138270000000     0.118997   
C189     C      0.075590000000     0.263340000000     0.115640000000    -0.00628182 
C190     C      0.081770000000     0.297240000000     0.011400000000    -0.0421589  
C191     C      0.041350000000     0.304270000000     0.122000000000    -0.00584038 
C192     C      0.112350000000     0.366240000000     0.036940000000     0.127149   
Co1      Co     0.122320000000     0.118010000000     0.112750000000     1.10814    
Co2      Co     0.105120000000     0.988540000000     0.000560000000     1.06765    
Co3      Co     0.120260000000     0.128980000000     0.972160000000     1.13116    
Co4      Co     0.995110000000     0.981510000000     0.072500000000     1.10307    
Co5      Co     0.109570000000     0.040000000000     0.449570000000     1.14164    
Co6      Co     0.013740000000     0.028780000000     0.579420000000     1.06926    
Co7      Co     0.947860000000     0.940320000000     0.477090000000     1.11468    
Co8      Co     0.129210000000     0.065900000000     0.588300000000     0.81489    
Co9      Co     0.134380000000     0.510060000000     0.027260000000     1.13109    
Co10     Co     0.132330000000     0.631090000000     0.143440000000     1.05399    
Co11     Co     0.011880000000     0.501480000000     0.088770000000     1.05309    
Co12     Co     0.166980000000     0.663670000000     0.013650000000     1.11116    
Co13     Co     0.065350000000     0.483240000000     0.538650000000     0.843867   
Co14     Co     0.075120000000     0.639190000000     0.615400000000     1.15877    
Co15     Co     0.021560000000     0.478420000000     0.602310000000     0.780586   
Co16     Co     0.179340000000     0.642130000000     0.523360000000     1.12434    
Co17     Co     0.492690000000     0.060020000000     0.063800000000     1.05671    
Co18     Co     0.642950000000     0.077600000000     0.967670000000     1.09865    
Co19     Co     0.607130000000     0.188320000000     0.003310000000     1.06804    
Co20     Co     0.627250000000     0.049810000000     0.103460000000     1.07102    
Co21     Co     0.491840000000     0.026720000000     0.616890000000     1.04094    
Co22     Co     0.630710000000     0.065680000000     0.488480000000     1.11912    
Co23     Co     0.528950000000     0.118910000000     0.516130000000     1.14462    
Co24     Co     0.585330000000     0.993790000000     0.614970000000     0.998659   
Co25     Co     0.626640000000     0.499750000000     0.036730000000     1.14684    
Co26     Co     0.607780000000     0.653210000000     0.117140000000     0.995811   
Co27     Co     0.534550000000     0.518280000000     0.128980000000     1.06564    
Co28     Co     0.714310000000     0.662220000000     0.043480000000     1.08502    
Co29     Co     0.551660000000     0.489330000000     0.493250000000     1.10894    
Co30     Co     0.553750000000     0.615460000000     0.603820000000     1.06594    
Co31     Co     0.522870000000     0.467000000000     0.627900000000     1.09235    
Co32     Co     0.676600000000     0.623840000000     0.546770000000     1.06523    
H1       H      0.628210000000     0.483330000000     0.875220000000     0.0658724  
H2       H      0.720540000000     0.665980000000     0.838760000000     0.073796   
H3       H      0.643550000000     0.674760000000     0.766340000000     0.0617875  
H4       H      0.555340000000     0.493130000000     0.855300000000     0.0617486  
H5       H      0.602100000000     0.475480000000     0.774080000000     0.0370821  
H6       H      0.660510000000     0.679620000000     0.873340000000     0.05145    
H7       H      0.568220000000     0.618050000000     0.803930000000     0.0529367  
H8       H      0.651640000000     0.691580000000     0.327000000000     0.0757433  
H9       H      0.542210000000     0.554610000000     0.315700000000     0.0479537  
H10      H      0.590300000000     0.486230000000     0.279710000000     0.0571815  
H11      H      0.717820000000     0.700110000000     0.378120000000     0.075371   
H12      H      0.748730000000     0.636000000000     0.324440000000     0.0379428  
H13      H      0.549770000000     0.500070000000     0.368330000000     0.0254345  
H14      H      0.659700000000     0.522350000000     0.330890000000     0.0543347  
H15      H      0.602200000000     0.848860000000     0.428110000000     0.0644609  
H16      H      0.486770000000     0.779260000000     0.479150000000     0.0468665  
H17      H      0.494710000000     0.705200000000     0.548130000000     0.0421105  
H18      H      0.671960000000     0.916710000000     0.465320000000     0.0595213  
H19      H      0.687900000000     0.843820000000     0.533380000000     0.0315798  
H20      H      0.482250000000     0.803780000000     0.548150000000     0.0450718  
H21      H      0.562140000000     0.771280000000     0.589030000000     0.0417352  
H22      H      0.434690000000     0.285690000000     0.525320000000     0.0652229  
H23      H      0.529770000000     0.323030000000     0.668360000000     0.0477432  
H24      H      0.415400000000     0.229140000000     0.639330000000     0.0494259  
H25      H      0.507170000000     0.296080000000     0.491050000000     0.0600283  
H26      H      0.486110000000     0.192990000000     0.510890000000    -0.00986151 
H27      H      0.572470000000     0.285110000000     0.638350000000     0.0590332  
H28      H      0.463630000000     0.200880000000     0.683360000000     0.0474474  
H29      H      0.675430000000     0.238070000000     0.757800000000     0.0765168  
H30      H      0.729790000000     0.172900000000     0.789210000000     0.0610916  
H31      H      0.664500000000     0.084140000000     0.856950000000     0.0356913  
H32      H      0.602660000000     0.204600000000     0.709060000000     0.0703254  
H33      H      0.528490000000     0.124230000000     0.778930000000     0.0390395  
H34      H      0.701810000000     0.093970000000     0.758730000000     0.0726166  
H35      H      0.591920000000     0.042860000000     0.807520000000     0.0551037  
H36      H      0.479430000000     0.111510000000     0.230600000000     0.0595514  
H37      H      0.649620000000     0.140140000000     0.287920000000     0.0645446  
H38      H      0.619360000000     0.042520000000     0.351350000000     0.0337717  
H39      H      0.455840000000     0.027500000000     0.250200000000     0.0530133  
H40      H      0.453710000000     0.081050000000     0.333950000000     0.027214   
H41      H      0.643550000000     0.070800000000     0.252700000000     0.0383389  
H42      H      0.543800000000     0.990800000000     0.307730000000     0.0408762  
H43      H      0.687630000000     0.845380000000     0.959190000000     0.0649054  
H44      H      0.668510000000     0.845270000000     0.069570000000     0.0550047  
H45      H      0.581160000000     0.870480000000     0.092960000000     0.041286   
H46      H      0.614060000000     0.784360000000     0.919260000000     0.0616216  
H47      H      0.547240000000     0.836710000000     0.933450000000     0.0407061  
H48      H      0.594690000000     0.776310000000     0.095900000000     0.0632882  
H49      H      0.519870000000     0.813430000000     0.043260000000     0.0387315  
H50      H      0.612970000000     0.271100000000     0.215290000000     0.081465   
H51      H      0.460450000000     0.203140000000     0.174930000000     0.0444866  
H52      H      0.524120000000     0.306000000000     0.223500000000     0.0534389  
H53      H      0.664190000000     0.276220000000     0.159590000000     0.078873   
H54      H      0.669050000000     0.373240000000     0.118510000000     0.0282106  
H55      H      0.468100000000     0.244200000000     0.107380000000     0.0428344  
H56      H      0.474990000000     0.323310000000     0.171150000000     0.0418904  
H57      H      0.726930000000     0.321150000000     0.560710000000     0.0629977  
H58      H      0.768100000000     0.274790000000     0.426120000000     0.0522506  
H59      H      0.821280000000     0.380160000000     0.475950000000     0.0489358  
H60      H      0.700750000000     0.241300000000     0.593710000000     0.0745559  
H61      H      0.816900000000     0.258230000000     0.593590000000     0.0471337  
H62      H      0.806240000000     0.241020000000     0.476550000000     0.0624074  
H63      H      0.885420000000     0.360020000000     0.460860000000     0.0724004  
H64      H      0.345030000000     0.872370000000     0.767840000000     0.0709643  
H65      H      0.397150000000     0.784190000000     0.715910000000     0.0639153  
H66      H      0.343710000000     0.736700000000     0.621930000000     0.040032   
H67      H      0.316090000000     0.894190000000     0.703300000000     0.067354   
H68      H      0.224700000000     0.787810000000     0.715950000000     0.0368528  
H69      H      0.450840000000     0.830410000000     0.660170000000     0.0536258  
H70      H      0.350200000000     0.813850000000     0.598490000000     0.0525076  
H71      H      0.704630000000     0.420090000000     0.540710000000     0.0572163  
H72      H      0.828450000000     0.618550000000     0.532410000000     0.0472784  
H73      H      0.926720000000     0.619950000000     0.496650000000     0.0532152  
H74      H      0.762300000000     0.438990000000     0.485740000000     0.0503223  
H75      H      0.819960000000     0.430940000000     0.572980000000     0.0429264  
H76      H      0.814370000000     0.605580000000     0.457550000000     0.0415611  
H77      H      0.874740000000     0.542710000000     0.462280000000     0.0543128  
H78      H      0.305370000000     0.415790000000     0.629260000000     0.0485757  
H79      H      0.406250000000     0.616800000000     0.603990000000     0.0471351  
H80      H      0.317750000000     0.632420000000     0.634000000000     0.0491958  
H81      H      0.278910000000     0.453210000000     0.677290000000     0.0534472  
H82      H      0.205940000000     0.431330000000     0.591190000000     0.0326352  
H83      H      0.409740000000     0.612790000000     0.679750000000     0.0355142  
H84      H      0.285100000000     0.562150000000     0.680780000000     0.0503344  
H85      H      0.153990000000     0.536090000000     0.812220000000     0.0747259  
H86      H      0.129790000000     0.643390000000     0.810790000000     0.0657856  
H87      H      0.012740000000     0.604140000000     0.770590000000     0.0566607  
H88      H      0.112030000000     0.475440000000     0.867440000000     0.0693789  
H89      H      0.998340000000     0.447750000000     0.827580000000     0.0355921  
H90      H      0.074780000000     0.638460000000     0.863980000000     0.06014    
H91      H      0.976640000000     0.540060000000     0.823040000000     0.0548937  
H92      H      0.056200000000     0.421040000000     0.359060000000     0.0832967  
H93      H      0.185370000000     0.510080000000     0.350320000000     0.0584371  
H94      H      0.204940000000     0.577010000000     0.267240000000     0.0552907  
H95      H      0.998950000000     0.448470000000     0.377350000000     0.0813487  
H96      H      0.003260000000     0.502460000000     0.290080000000     0.0483374  
H97      H      0.212940000000     0.593640000000     0.369690000000     0.0519258  
H98      H      0.155800000000     0.612510000000     0.289360000000     0.047275   
H99      H      0.834580000000     0.240180000000     0.914050000000     0.0820397  
H100     H      0.810250000000     0.349510000000     0.027010000000     0.0570777  
H101     H      0.869520000000     0.454970000000     0.974220000000     0.0505752  
H102     H      0.834780000000     0.309570000000     0.878840000000     0.0603724  
H103     H      0.954160000000     0.342340000000     0.919220000000     0.0310037  
H104     H      0.753510000000     0.352210000000     0.971160000000     0.0372368  
H105     H      0.849680000000     0.414060000000     0.908800000000     0.0505849  
H106     H      0.381050000000     0.936180000000     0.170830000000     0.059177   
H107     H      0.462500000000     0.871550000000     0.198910000000     0.0416809  
H108     H      0.347400000000     0.804190000000     0.219980000000     0.0519944  
H109     H      0.368910000000     0.945860000000     0.097100000000     0.0331915  
H110     H      0.273760000000     0.846750000000     0.086920000000     0.0294297  
H111     H      0.454180000000     0.823750000000     0.138900000000     0.031972   
H112     H      0.356100000000     0.743500000000     0.185780000000     0.0405146  
H113     H      0.895240000000     0.653810000000     0.121090000000     0.0651528  
H114     H      0.868360000000     0.539450000000     0.036350000000     0.0605867  
H115     H      0.886200000000     0.461970000000     0.097590000000     0.015337   
H116     H      0.822060000000     0.618450000000     0.163230000000     0.0833251  
H117     H      0.846030000000     0.538270000000     0.207150000000     0.0535106  
H118     H      0.785110000000     0.470410000000     0.052240000000     0.0455208  
H119     H      0.823910000000     0.452940000000     0.144240000000     0.0564302  
H120     H      0.387060000000     0.528550000000     0.108100000000     0.0753572  
H121     H      0.480080000000     0.710910000000     0.062010000000     0.0664511  
H122     H      0.388290000000     0.736710000000     0.055080000000     0.0451144  
H123     H      0.340150000000     0.561980000000     0.136410000000     0.0663377  
H124     H      0.308550000000     0.530330000000     0.034610000000     0.0540837  
H125     H      0.475300000000     0.736830000000     0.131290000000     0.0402221  
H126     H      0.351600000000     0.685660000000     0.116780000000     0.0471831  
H127     H      0.856330000000     0.855770000000     0.709620000000     0.0812221  
H128     H      0.903290000000     0.781890000000     0.694090000000     0.0605559  
H129     H      0.816100000000     0.684060000000     0.649820000000     0.0638143  
H130     H      0.859800000000     0.912470000000     0.655620000000     0.0691487  
H131     H      0.764990000000     0.822680000000     0.600800000000     0.0376881  
H132     H      0.933610000000     0.782280000000     0.626040000000     0.0422965  
H133     H      0.820290000000     0.726060000000     0.583380000000     0.02694    
H134     H      0.340970000000     0.372770000000     0.428370000000     0.0751541  
H135     H      0.264640000000     0.330910000000     0.556370000000     0.0614749  
H136     H      0.254270000000     0.226770000000     0.594990000000     0.0493756  
H137     H      0.378270000000     0.322630000000     0.448460000000     0.0461783  
H138     H      0.266910000000     0.242540000000     0.416920000000     0.0380757  
H139     H      0.333670000000     0.342420000000     0.604700000000     0.0439538  
H140     H      0.333370000000     0.245830000000     0.565460000000     0.0548438  
H141     H      0.733680000000     0.954120000000     0.566390000000     0.0659904  
H142     H      0.761460000000     0.022730000000     0.469220000000     0.0399729  
H143     H      0.816850000000     0.141930000000     0.493770000000     0.053266   
H144     H      0.801210000000     0.947210000000     0.602350000000     0.0696344  
H145     H      0.866130000000     0.071480000000     0.617710000000     0.0450301  
H146     H      0.849300000000     0.065210000000     0.449730000000     0.0540133  
H147     H      0.885010000000     0.136880000000     0.531930000000     0.0553381  
H148     H      0.251500000000     0.857200000000     0.553370000000     0.0642974  
H149     H      0.303960000000     0.943280000000     0.435490000000     0.0411065  
H150     H      0.193020000000     0.882370000000     0.476110000000     0.0413185  
H151     H      0.313410000000     0.906980000000     0.606570000000     0.0686148  
H152     H      0.268240000000     0.980730000000     0.611000000000     0.0470466  
H153     H      0.320550000000     0.019880000000     0.464750000000     0.0721868  
H154     H      0.200890000000     0.956270000000     0.443040000000     0.0456637  
H155     H      0.050080000000     0.814590000000     0.355690000000     0.0767177  
H156     H      0.955570000000     0.727690000000     0.442060000000     0.0559904  
H157     H      0.002630000000     0.719360000000     0.539230000000     0.0494283  
H158     H      0.122720000000     0.872810000000     0.394630000000     0.0497618  
H159     H      0.146850000000     0.787430000000     0.410540000000     0.028376   
H160     H      0.946970000000     0.774440000000     0.494260000000     0.0473615  
H161     H      0.065260000000     0.806360000000     0.535570000000     0.0639835  
H162     H      0.084140000000     0.270370000000     0.495920000000     0.0967025  
H163     H      0.171370000000     0.307900000000     0.593130000000     0.0468839  
H164     H      0.125250000000     0.356890000000     0.650420000000     0.0569167  
H165     H      0.009170000000     0.189750000000     0.499560000000     0.0841044  
H166     H      0.967010000000     0.229690000000     0.574210000000     0.0337551  
H167     H      0.135520000000     0.251530000000     0.651750000000     0.0474347  
H168     H      0.046650000000     0.280090000000     0.658660000000     0.0608774  
H169     H      0.025250000000     0.925430000000     0.740070000000     0.0754882  
H170     H      0.908630000000     0.969910000000     0.755190000000     0.0683702  
H171     H      0.929470000000     0.024410000000     0.842560000000     0.0641229  
H172     H      0.096360000000     0.000730000000     0.768570000000     0.066795   
H173     H      0.046510000000     0.933820000000     0.847080000000     0.0382377  
H174     H      0.951000000000     0.056190000000     0.736230000000     0.064223   
H175     H      0.011760000000     0.092050000000     0.822070000000     0.0521103  
H176     H      0.124990000000     0.047210000000     0.311710000000     0.0489487  
H177     H      0.014520000000     0.924950000000     0.298730000000     0.0588922  
H178     H      0.910700000000     0.934880000000     0.305550000000     0.0569428  
H179     H      0.149710000000     0.101380000000     0.250820000000     0.0522333  
H180     H      0.035890000000     0.097990000000     0.248570000000     0.03407    
H181     H      0.968180000000     0.908130000000     0.231850000000     0.0697969  
H182     H      0.933840000000     0.990600000000     0.246200000000     0.0493567  
H183     H      0.911040000000     0.821340000000     0.094410000000     0.0804497  
H184     H      0.861610000000     0.902920000000     0.090190000000     0.0193338  
H185     H      0.844250000000     0.922580000000     0.988040000000     0.0631508  
H186     H      0.853930000000     0.735770000000     0.090370000000     0.07798    
H187     H      0.815810000000     0.754870000000     0.990770000000     0.00934274 
H188     H      0.772240000000     0.867700000000     0.073500000000     0.0413801  
H189     H      0.784370000000     0.836890000000     0.978450000000     0.0553159  
H190     H      0.432730000000     0.347820000000     0.967620000000     0.0665902  
H191     H      0.330500000000     0.375290000000     0.079730000000     0.073646   
H192     H      0.293870000000     0.273880000000     0.136790000000     0.0417215  
H193     H      0.438390000000     0.303190000000     0.029920000000     0.0487622  
H194     H      0.330260000000     0.236140000000     0.974360000000     0.0349167  
H195     H      0.398570000000     0.388590000000     0.130580000000     0.0311398  
H196     H      0.371410000000     0.272940000000     0.126190000000     0.0370627  
H197     H      0.941380000000     0.183560000000     0.038240000000     0.0811253  
H198     H      0.934380000000     0.175370000000     0.153790000000     0.0452966  
H199     H      0.816080000000     0.128340000000     0.157500000000     0.0519484  
H200     H      0.947650000000     0.119150000000     0.006550000000     0.0912205  
H201     H      0.826370000000     0.038020000000     0.027470000000     0.0358236  
H202     H      0.910540000000     0.094780000000     0.181870000000     0.0399593  
H203     H      0.797990000000     0.046490000000     0.142060000000     0.0348407  
H204     H      0.386820000000     0.181880000000     0.967420000000     0.058042   
H205     H      0.321490000000     0.041210000000     0.013500000000     0.0465249  
H206     H      0.222420000000     0.976220000000     0.949160000000     0.0235753  
H207     H      0.433010000000     0.189570000000     0.906110000000     0.0721363  
H208     H      0.328870000000     0.111170000000     0.853980000000     0.0381074  
H209     H      0.340100000000     0.992010000000     0.970020000000     0.0497795  
H210     H      0.275110000000     0.001210000000     0.890260000000     0.0427952  
H211     H      0.979100000000     0.749570000000     0.083300000000     0.0783669  
H212     H      0.065840000000     0.819140000000     0.997610000000     0.0642315  
H213     H      0.175370000000     0.914500000000     0.035370000000     0.0301872  
H214     H      0.009290000000     0.707550000000     0.131470000000     0.0728061  
H215     H      0.103300000000     0.809130000000     0.165680000000     0.0567023  
H216     H      0.137360000000     0.806540000000     0.993450000000     0.0414973  
H217     H      0.185250000000     0.861430000000     0.085710000000     0.0578361  
H218     H      0.115570000000     0.300190000000     0.977980000000     0.069607   
H219     H      0.129090000000     0.290650000000     0.134120000000     0.0670568  
H220     H      0.047880000000     0.318620000000     0.166910000000     0.052821   
H221     H      0.030570000000     0.281260000000     0.990770000000     0.0712483  
H222     H      0.111600000000     0.400390000000     0.003270000000    -0.00369288 
H223     H      0.048610000000     0.217020000000     0.141050000000     0.046955   
H224     H      0.985730000000     0.274340000000     0.111250000000     0.0655383  
N1       N      0.613770000000     0.572500000000     0.762830000000    -0.18036    
N2       N      0.644770000000     0.581470000000     0.882270000000    -0.168724   
N3       N      0.660870000000     0.592090000000     0.269090000000    -0.183219   
N4       N      0.625680000000     0.604330000000     0.375540000000    -0.17445    
N5       N      0.595680000000     0.754780000000     0.513250000000    -0.178328   
N6       N      0.576440000000     0.866260000000     0.506690000000    -0.17391    
N7       N      0.454480000000     0.179560000000     0.595850000000    -0.186029   
N8       N      0.524520000000     0.320460000000     0.578110000000    -0.171827   
N9       N      0.606020000000     0.133080000000     0.838910000000    -0.185298   
N10      N      0.646270000000     0.142700000000     0.729240000000    -0.168576   
N11      N      0.537220000000     0.064140000000     0.351870000000    -0.187504   
N12      N      0.561040000000     0.090160000000     0.233070000000    -0.166268   
N13      N      0.601760000000     0.893850000000     0.005310000000    -0.181013   
N14      N      0.608440000000     0.772440000000     0.008300000000    -0.157584   
N15      N      0.582530000000     0.366540000000     0.156000000000    -0.186763   
N16      N      0.556520000000     0.240340000000     0.137740000000    -0.168428   
N17      N      0.860130000000     0.349690000000     0.547850000000    -0.158833   
N18      N      0.726730000000     0.251350000000     0.507210000000    -0.182116   
N19      N      0.275940000000     0.760690000000     0.659790000000    -0.187273   
N20      N      0.397990000000     0.874470000000     0.696560000000    -0.152345   
N21      N      0.879630000000     0.533140000000     0.551220000000    -0.179247   
N22      N      0.752630000000     0.520120000000     0.507640000000    -0.167543   
N23      N      0.263330000000     0.536850000000     0.594480000000    -0.178973   
N24      N      0.373100000000     0.520150000000     0.640670000000    -0.167987   
N25      N      0.032310000000     0.523090000000     0.764160000000    -0.178004   
N26      N      0.104620000000     0.563530000000     0.869110000000    -0.172324   
N27      N      0.094750000000     0.513570000000     0.260160000000    -0.175132   
N28      N      0.106490000000     0.522290000000     0.379760000000    -0.166517   
N29      N      0.923800000000     0.402600000000     0.960080000000    -0.180229   
N30      N      0.789740000000     0.285630000000     0.958590000000    -0.160164   
N31      N      0.304860000000     0.787070000000     0.136450000000    -0.183007   
N32      N      0.425490000000     0.896420000000     0.122420000000    -0.171723   
N33      N      0.917230000000     0.545670000000     0.150240000000    -0.18267    
N34      N      0.813930000000     0.561920000000     0.091880000000    -0.174745   
N35      N      0.335540000000     0.631970000000     0.044060000000    -0.180184   
N36      N      0.443590000000     0.634910000000     0.122300000000    -0.151519   
N37      N      0.765040000000     0.741210000000     0.644540000000    -0.180073   
N38      N      0.898320000000     0.850040000000     0.635660000000    -0.1698     
N39      N      0.251760000000     0.225180000000     0.504940000000    -0.17887    
N40      N      0.356350000000     0.362370000000     0.516660000000    -0.165096   
N41      N      0.790100000000     0.084800000000     0.571980000000    -0.188868   
N42      N      0.827090000000     0.002370000000     0.523940000000    -0.172798   
N43      N      0.207480000000     0.954110000000     0.534680000000    -0.17703    
N44      N      0.328180000000     0.951480000000     0.523180000000    -0.166461   
N45      N      0.080310000000     0.747900000000     0.478970000000    -0.182021   
N46      N      0.028300000000     0.831020000000     0.436180000000    -0.168933   
N47      N      0.054810000000     0.325360000000     0.577900000000    -0.158611   
N48      N      0.080090000000     0.218530000000     0.572230000000    -0.161049   
N49      N      0.011580000000     0.004410000000     0.850580000000    -0.182372   
N50      N      0.012600000000     0.009890000000     0.734600000000    -0.152455   
N51      N      0.999650000000     0.031990000000     0.318930000000    -0.187515   
N52      N      0.062950000000     0.002510000000     0.237860000000    -0.173847   
N53      N      0.887280000000     0.857670000000     0.992390000000    -0.180271   
N54      N      0.807240000000     0.798010000000     0.087700000000    -0.174931   
N55      N      0.303610000000     0.247110000000     0.054690000000    -0.188456   
N56      N      0.416920000000     0.379410000000     0.045070000000    -0.170243   
N57      N      0.812090000000     0.108010000000     0.069700000000    -0.183733   
N58      N      0.937350000000     0.110940000000     0.096040000000    -0.17289    
N59      N      0.262560000000     0.077590000000     0.921580000000    -0.184462   
N60      N      0.394900000000     0.097690000000     0.952310000000    -0.166286   
N61      N      0.100350000000     0.872400000000     0.100970000000    -0.183429   
N62      N      0.068030000000     0.750920000000     0.058950000000    -0.164182   
N63      N      0.072610000000     0.363240000000     0.085290000000    -0.183676   
N64      N      0.076020000000     0.248960000000     0.055700000000    -0.174256   
O1       O      0.128270000000     0.192480000000     0.081460000000    -0.49729    
O2       O      0.006970000000     0.903610000000     0.995190000000    -0.381479   
O3       O      0.042880000000     0.073050000000     0.925860000000    -0.437453   
O4       O      0.962620000000     0.037820000000     0.064110000000    -0.467465   
O5       O      0.078710000000     0.001320000000     0.924840000000    -0.448249   
O6       O      0.027670000000     0.099480000000     0.133750000000    -0.419877   
O7       O      0.966260000000     0.965980000000     0.998040000000    -0.452943   
O8       O      0.071260000000     0.168240000000     0.000440000000    -0.445025   
O9       O      0.121980000000     0.049650000000     0.158360000000    -0.448668   
O10      O      0.198140000000     0.053500000000     0.997820000000    -0.444084   
O11      O      0.200850000000     0.185920000000     0.011030000000    -0.458045   
O12      O      0.025820000000     0.913140000000     0.090810000000    -0.405913   
O13      O      0.131040000000     0.974410000000     0.070710000000    -0.461093   
O14      O      0.216880000000     0.152270000000     0.096160000000    -0.421861   
O15      O      0.011090000000     0.990400000000     0.151300000000    -0.463285   
O16      O      0.182330000000     0.109360000000     0.931130000000    -0.403264   
O17      O      0.086970000000     0.056380000000     0.039810000000    -0.531542   
O18      O      0.056550000000     0.063340000000     0.403580000000    -0.457074   
O19      O      0.026280000000     0.109340000000     0.550630000000    -0.433725   
O20      O      0.905950000000     0.994180000000     0.475080000000    -0.436062   
O21      O      0.203590000000     0.121160000000     0.543390000000    -0.409821   
O22      O      0.918690000000     0.999350000000     0.565590000000    -0.420527   
O23      O      0.158700000000     0.133470000000     0.464820000000    -0.41729    
O24      O      0.120880000000     0.146990000000     0.599320000000    -0.409797   
O25      O      0.966820000000     0.966510000000     0.399070000000    -0.44917    
O26      O      0.169790000000     0.018820000000     0.491470000000    -0.45256    
O27      O      0.993090000000     0.939310000000     0.604890000000    -0.411408   
O28      O      0.982410000000     0.884810000000     0.476050000000    -0.475498   
O29      O      0.078480000000     0.025350000000     0.658990000000    -0.39807    
O30      O      0.994480000000     0.045940000000     0.648480000000    -0.411513   
O31      O      0.068830000000     0.944920000000     0.422780000000    -0.422304   
O32      O      0.149340000000     0.994600000000     0.581700000000    -0.368252   
O33      O      0.905680000000     0.892750000000     0.546840000000    -0.427881   
O34      O      0.044880000000     0.016670000000     0.514810000000    -0.567649   
O35      O      0.037480000000     0.446740000000     0.993730000000    -0.411554   
O36      O      0.118370000000     0.701110000000     0.110290000000    -0.427272   
O37      O      0.995030000000     0.569920000000     0.086070000000    -0.455952   
O38      O      0.116000000000     0.614170000000     0.951410000000    -0.465654   
O39      O      0.034530000000     0.598180000000     0.168370000000    -0.383178   
O40      O      0.151910000000     0.544570000000     0.951310000000    -0.455145   
O41      O      0.098360000000     0.684390000000     0.018850000000    -0.437194   
O42      O      0.982010000000     0.495150000000     0.012960000000    -0.434632   
O43      O      0.223030000000     0.558260000000     0.050680000000    -0.467053   
O44      O      0.143210000000     0.565780000000     0.179300000000    -0.441442   
O45      O      0.016410000000     0.419260000000     0.091300000000    -0.411532   
O46      O      0.225380000000     0.731870000000     0.065840000000    -0.455729   
O47      O      0.230770000000     0.674570000000     0.136400000000    -0.429692   
O48      O      0.124510000000     0.472120000000     0.096890000000    -0.458882   
O49      O      0.249560000000     0.652980000000     0.008340000000    -0.420857   
O50      O      0.033700000000     0.497840000000     0.173670000000    -0.382181   
O51      O      0.112600000000     0.577430000000     0.066700000000    -0.510553   
O52      O      0.963280000000     0.443940000000     0.531160000000    -0.405968   
O53      O      0.105800000000     0.708480000000     0.560470000000    -0.458173   
O54      O      0.949480000000     0.505820000000     0.607120000000    -0.352641   
O55      O      0.160570000000     0.587390000000     0.457530000000    -0.433473   
O56      O      0.991240000000     0.606300000000     0.575730000000    -0.472876   
O57      O      0.058080000000     0.503290000000     0.463800000000    -0.40287    
O58      O      0.129700000000     0.681130000000     0.482580000000    -0.427426   
O59      O      0.949760000000     0.394330000000     0.614750000000    -0.31998    
O60      O      0.164480000000     0.506970000000     0.539640000000    -0.369523   
O61      O      0.039840000000     0.582130000000     0.682010000000    -0.432688   
O62      O      0.077400000000     0.429710000000     0.606110000000    -0.37803    
O63      O      0.219530000000     0.708920000000     0.578770000000    -0.461166   
O64      O      0.161700000000     0.680260000000     0.655370000000    -0.451321   
O65      O      0.045230000000     0.401200000000     0.518830000000    -0.345234   
O66      O      0.230820000000     0.610430000000     0.561780000000    -0.467394   
O67      O      0.045550000000     0.492240000000     0.678440000000    -0.370743   
O68      O      0.093850000000     0.574020000000     0.571310000000    -0.520825   
O69      O      0.461530000000     0.056840000000     0.989450000000    -0.440533   
O70      O      0.589570000000     0.983050000000     0.974460000000    -0.411136   
O71      O      0.608760000000     0.176950000000     0.922440000000    -0.417759   
O72      O      0.538770000000     0.974310000000     0.123850000000    -0.437969   
O73      O      0.572930000000     0.072730000000     0.919370000000    -0.446627   
O74      O      0.473930000000     0.973490000000     0.053230000000    -0.43603    
O75      O      0.630710000000     0.983120000000     0.059840000000    -0.439992   
O76      O      0.509140000000     0.163190000000     0.982800000000    -0.412283   
O77      O      0.512700000000     0.060670000000     0.144380000000    -0.442613   
O78      O      0.712110000000     0.173010000000     0.949520000000    -0.408258   
O79      O      0.608830000000     0.210550000000     0.077290000000    -0.449397   
O80      O      0.719690000000     0.115670000000     0.093180000000    -0.439965   
O81      O      0.718850000000     0.081290000000     0.010200000000    -0.437499   
O82      O      0.499170000000     0.146680000000     0.082510000000    -0.417892   
O83      O      0.623980000000     0.105820000000     0.156290000000    -0.433232   
O84      O      0.701440000000     0.226160000000     0.016230000000    -0.440416   
O85      O      0.593390000000     0.094000000000     0.035290000000    -0.501308   
O86      O      0.425790000000     0.963930000000     0.567340000000    -0.440231   
O87      O      0.620450000000     0.978510000000     0.499460000000    -0.450498   
O88      O      0.527900000000     0.100080000000     0.437000000000    -0.432792   
O89      O      0.497880000000     0.945550000000     0.652840000000    -0.48149    
O90      O      0.557510000000     0.025330000000     0.435900000000    -0.472656   
O91      O      0.432740000000     0.983960000000     0.675590000000    -0.38736    
O92      O      0.546090000000     0.923050000000     0.563010000000    -0.435835   
O93      O      0.432610000000     0.045540000000     0.513040000000    -0.431783   
O94      O      0.554250000000     0.092010000000     0.667730000000    -0.437962   
O95      O      0.657820000000     0.154460000000     0.461500000000    -0.457365   
O96      O      0.534590000000     0.152510000000     0.586030000000    -0.466542   
O97      O      0.677360000000     0.025430000000     0.594330000000    -0.429164   
O98      O      0.709200000000     0.107710000000     0.535400000000    -0.480947   
O99      O      0.440860000000     0.076800000000     0.611780000000    -0.378645   
O100     O      0.627840000000     0.059080000000     0.671760000000    -0.435813   
O101     O      0.613880000000     0.189190000000     0.518420000000    -0.493477   
O102     O      0.563950000000     0.058530000000     0.554250000000    -0.526475   
O103     O      0.530010000000     0.443860000000     0.033780000000    -0.471858   
O104     O      0.570690000000     0.668680000000     0.046540000000    -0.395958   
O105     O      0.505290000000     0.581840000000     0.133110000000    -0.499061   
O106     O      0.696620000000     0.632250000000     0.966250000000    -0.443607   
O107     O      0.559400000000     0.687070000000     0.152090000000    -0.387651   
O108     O      0.615440000000     0.527700000000     0.966060000000    -0.483505   
O109     O      0.671450000000     0.718840000000     0.013440000000    -0.401322   
O110     O      0.475980000000     0.488370000000     0.065860000000    -0.454334   
O111     O      0.722430000000     0.533250000000     0.028480000000    -0.46569    
O112     O      0.649160000000     0.647010000000     0.189530000000    -0.396867   
O113     O      0.541620000000     0.438140000000     0.138020000000    -0.440023   
O114     O      0.738380000000     0.692340000000     0.114790000000    -0.449477   
O115     O      0.693020000000     0.749480000000     0.112030000000    -0.358109   
O116     O      0.639870000000     0.464310000000     0.106710000000    -0.45927    
O117     O      0.764940000000     0.624660000000     0.070500000000    -0.476206   
O118     O      0.585120000000     0.541110000000     0.196000000000    -0.485947   
O119     O      0.627190000000     0.583490000000     0.077500000000    -0.504948   
O120     O      0.455910000000     0.458460000000     0.494650000000    -0.422559   
O121     O      0.548650000000     0.645250000000     0.531840000000    -0.438119   
O122     O      0.454740000000     0.488780000000     0.654990000000    -0.423521   
O123     O      0.671450000000     0.620480000000     0.465170000000    -0.437004   
O124     O      0.463510000000     0.555530000000     0.587150000000    -0.451652   
O125     O      0.561340000000     0.562410000000     0.451560000000    -0.451459   
O126     O      0.658230000000     0.700760000000     0.528890000000    -0.393026   
O127     O      0.447820000000     0.412020000000     0.578360000000    -0.463742   
O128     O      0.646310000000     0.506410000000     0.484250000000    -0.429502   
O129     O      0.559370000000     0.590590000000     0.684230000000    -0.424578   
O130     O      0.576100000000     0.427170000000     0.611460000000    -0.421959   
O131     O      0.693440000000     0.633570000000     0.623660000000    -0.440143   
O132     O      0.647550000000     0.692460000000     0.626180000000    -0.403047   
O133     O      0.537680000000     0.408840000000     0.525200000000    -0.471172   
O134     O      0.704860000000     0.563070000000     0.557880000000    -0.440359   
O135     O      0.590030000000     0.515650000000     0.682010000000    -0.439229   
O136     O      0.575780000000     0.547260000000     0.567640000000    -0.508112   


