data_structure

_audit_creation_method RASPA-1.0
_audit_creation_date 2023-6-4
_audit_author_name 'Poobodin Mano'

_cell_length_a    23.4586
_cell_length_b    23.4159
_cell_length_c    24.1394
_cell_angle_alpha 87.1298
_cell_angle_beta  93.8186
_cell_angle_gamma 120.434
_cell_volume      11405.4

_symmetry_cell_setting          triclinic
_symmetry_space_group_name_Hall 'P 1'
_symmetry_space_group_name_H-M  'P 1'
_symmetry_Int_Tables_number     1

_symmetry_equiv_pos_as_xyz 'x,y,z'

loop_
_atom_site_label
_atom_site_type_symbol
_atom_site_fract_x
_atom_site_fract_y
_atom_site_fract_z
_atom_site_charge
Br1      Br     0.642080000000     0.694900000000     0.740200000000    -0.182666   
Br2      Br     0.693910000000     0.708690000000     0.377040000000    -0.21266    
Br3      Br     0.398930000000     0.756660000000     0.509070000000    -0.195563   
Br4      Br     0.403450000000     0.149380000000     0.696540000000    -0.224462   
Br5      Br     0.483400000000     0.942240000000     0.872450000000    -0.199106   
Br6      Br     0.527840000000     0.929930000000     0.246100000000    -0.181455   
Br7      Br     0.717400000000     0.967150000000     0.926520000000    -0.18386    
Br8      Br     0.654540000000     0.441780000000     0.183120000000    -0.199652   
Br9      Br     0.674150000000     0.306630000000     0.507820000000    -0.235709   
Br10     Br     0.404090000000     0.907940000000     0.500050000000    -0.178528   
Br11     Br     0.703980000000     0.496460000000     0.660740000000    -0.19362    
Br12     Br     0.421690000000     0.697700000000     0.662610000000    -0.182959   
Br13     Br     0.114500000000     0.724370000000     0.730570000000    -0.202905   
Br14     Br     0.168380000000     0.703560000000     0.253690000000    -0.165778   
Br15     Br     0.799500000000     0.203030000000     0.887390000000    -0.189729   
Br16     Br     0.304210000000     0.724750000000     0.168740000000    -0.165251   
Br17     Br     0.814940000000     0.419540000000     0.108520000000    -0.223951   
Br18     Br     0.438250000000     0.706030000000     0.114800000000    -0.20334    
Br19     Br     0.794170000000     0.673290000000     0.652310000000    -0.174444   
Br20     Br     0.314870000000     0.156610000000     0.440460000000    -0.198309   
Br21     Br     0.821940000000     0.149400000000     0.585600000000    -0.24629    
Br22     Br     0.185030000000     0.971860000000     0.440530000000    -0.249176   
Br23     Br     0.118390000000     0.761560000000     0.415360000000    -0.17732    
Br24     Br     0.206440000000     0.421720000000     0.664510000000    -0.228807   
Br25     Br     0.011280000000     0.159820000000     0.836720000000    -0.183225   
Br26     Br     0.189610000000     0.188290000000     0.235580000000    -0.198187   
Br27     Br     0.889520000000     0.799970000000     0.949180000000    -0.214451   
Br28     Br     0.445680000000     0.266280000000     0.990780000000    -0.217905   
Br29     Br     0.664570000000     0.913160000000     0.153190000000    -0.190405   
Br30     Br     0.236600000000     0.026130000000     0.062880000000    -0.202392   
Br31     Br     0.914670000000     0.784780000000     0.116800000000    -0.211906   
Br32     Br     0.972360000000     0.288950000000     0.122450000000    -0.231228   
C1       C      0.091560000000     0.218280000000     0.991390000000     0.400416   
C2       C      0.922700000000     0.946040000000     0.987380000000     0.457041   
C3       C      0.051800000000     0.055320000000     0.891050000000     0.523907   
C4       C      0.913750000000     0.039960000000     0.104360000000     0.378894   
C5       C      0.065180000000     0.072370000000     0.169670000000     0.527463   
C6       C      0.212920000000     0.096150000000     0.953720000000     0.394759   
C7       C      0.211210000000     0.193670000000     0.063730000000     0.440391   
C8       C      0.035700000000     0.920530000000     0.072290000000     0.421376   
C9       C      0.043060000000     0.039380000000     0.393840000000     0.501244   
C10      C      0.072260000000     0.182390000000     0.587070000000     0.481616   
C11      C      0.897000000000     0.013220000000     0.475470000000     0.429567   
C12      C      0.202050000000     0.154840000000     0.513880000000     0.532362   
C13      C      0.164130000000     0.996750000000     0.568670000000     0.529052   
C14      C      0.908150000000     0.917670000000     0.583340000000     0.462571   
C15      C      0.980570000000     0.871300000000     0.449640000000     0.4135     
C16      C      0.017650000000     0.034970000000     0.667150000000     0.469946   
C17      C      0.972260000000     0.419200000000     0.994660000000     0.378734   
C18      C      0.051690000000     0.701510000000     0.017890000000     0.473311   
C19      C      0.935960000000     0.573650000000     0.121450000000     0.394167   
C20      C      0.075720000000     0.598320000000     0.922930000000     0.483053   
C21      C      0.218560000000     0.595750000000     0.997520000000     0.4892     
C22      C      0.068420000000     0.558550000000     0.198220000000     0.486723   
C23      C      0.089770000000     0.433140000000     0.080980000000     0.469155   
C24      C      0.181500000000     0.734950000000     0.115660000000     0.47902    
C25      C      0.921330000000     0.378140000000     0.535750000000     0.514459   
C26      C      0.036380000000     0.683410000000     0.520230000000     0.387618   
C27      C      0.918000000000     0.523940000000     0.584170000000     0.478874   
C28      C      0.085250000000     0.551590000000     0.428540000000     0.460192   
C29      C      0.199130000000     0.565900000000     0.546170000000     0.483966   
C30      C      0.047000000000     0.571550000000     0.696440000000     0.461997   
C31      C      0.066810000000     0.400700000000     0.619500000000     0.559789   
C32      C      0.188720000000     0.718890000000     0.571930000000     0.375969   
C33      C      0.448920000000     0.097260000000     0.976840000000     0.463194   
C34      C      0.590540000000     0.958900000000     0.984910000000     0.40477    
C35      C      0.573640000000     0.096200000000     0.908900000000     0.472125   
C36      C      0.404920000000     0.969370000000     0.101750000000     0.389603   
C37      C      0.545970000000     0.062860000000     0.180400000000     0.47864    
C38      C      0.720740000000     0.206370000000     0.991510000000     0.459679   
C39      C      0.535560000000     0.211230000000     0.087630000000     0.45917    
C40      C      0.685000000000     0.051600000000     0.095410000000     0.480764   
C41      C      0.410850000000     0.034980000000     0.542160000000     0.511795   
C42      C      0.540850000000     0.883440000000     0.499120000000     0.524483   
C43      C      0.532210000000     0.067680000000     0.408350000000     0.471818   
C44      C      0.441510000000     0.914310000000     0.629510000000     0.475994   
C45      C      0.598680000000     0.051150000000     0.689930000000     0.471854   
C46      C      0.671800000000     0.168690000000     0.497180000000     0.489338   
C47      C      0.522910000000     0.152490000000     0.635650000000     0.431675   
C48      C      0.690410000000     0.018380000000     0.554100000000     0.526264   
C49      C      0.458320000000     0.405940000000     0.012710000000     0.387055   
C50      C      0.575220000000     0.721470000000     0.992230000000     0.463141   
C51      C      0.429240000000     0.567960000000     0.082940000000     0.490854   
C52      C      0.593690000000     0.564010000000     0.925590000000     0.483298   
C53      C      0.699600000000     0.555000000000     0.047490000000     0.49743    
C54      C      0.567880000000     0.594420000000     0.191310000000     0.4629     
C55      C      0.513210000000     0.420630000000     0.134030000000     0.386019   
C56      C      0.702920000000     0.748820000000     0.083100000000     0.464187   
C57      C      0.418810000000     0.398450000000     0.506130000000     0.512634   
C58      C      0.554700000000     0.662520000000     0.494280000000     0.454506   
C59      C      0.435820000000     0.580650000000     0.611870000000     0.424585   
C60      C      0.592840000000     0.557290000000     0.419550000000     0.482545   
C61      C      0.693610000000     0.527440000000     0.532560000000     0.521353   
C62      C      0.549410000000     0.542380000000     0.696400000000     0.500821   
C63      C      0.534740000000     0.383290000000     0.600110000000     0.491356   
C64      C      0.670020000000     0.693780000000     0.610600000000     0.457897   
C65      C      0.549530000000     0.497770000000     0.844310000000     0.0374663  
C66      C      0.613420000000     0.613700000000     0.835570000000     0.0060726  
C67      C      0.541040000000     0.493180000000     0.786310000000     0.0460648  
C68      C      0.603080000000     0.609850000000     0.777830000000     0.165401   
C69      C      0.539970000000     0.526600000000     0.272860000000     0.0397492  
C70      C      0.621370000000     0.639190000000     0.279890000000     0.00844283 
C71      C      0.545860000000     0.518230000000     0.330030000000     0.044537   
C72      C      0.629420000000     0.630570000000     0.337690000000     0.159445   
C73      C      0.595820000000     0.773680000000     0.460230000000     0.0356602  
C74      C      0.485350000000     0.709610000000     0.486130000000     0.00896655 
C75      C      0.590290000000     0.830650000000     0.459330000000     0.049236   
C76      C      0.480980000000     0.766900000000     0.488230000000     0.168527   
C77      C      0.592140000000     0.325320000000     0.620670000000     0.0449458  
C78      C      0.484980000000     0.281140000000     0.653010000000     0.00521688 
C79      C      0.590380000000     0.266280000000     0.634530000000     0.0440869  
C80      C      0.482720000000     0.220630000000     0.666380000000     0.157639   
C81      C      0.616580000000     0.125680000000     0.762350000000     0.0483043  
C82      C      0.559480000000     0.010760000000     0.780110000000     0.0138192  
C83      C      0.607780000000     0.136330000000     0.817160000000     0.0499974  
C84      C      0.547310000000     0.020840000000     0.833780000000     0.163894   
C85      C      0.550760000000     0.122290000000     0.319350000000     0.0384399  
C86      C      0.532420000000     0.013750000000     0.328180000000     0.00196079 
C87      C      0.554470000000     0.120350000000     0.261760000000     0.0436584  
C88      C      0.538590000000     0.012210000000     0.271260000000     0.155823   
C89      C      0.518960000000     0.781240000000     0.976160000000     0.04222    
C90      C      0.629560000000     0.830760000000     0.951750000000     0.00718822 
C91      C      0.523930000000     0.843050000000     0.975360000000     0.0469445  
C92      C      0.634980000000     0.893690000000     0.950630000000     0.156437   
C93      C      0.467360000000     0.248220000000     0.124990000000     0.044529   
C94      C      0.583190000000     0.315480000000     0.131510000000     0.00535572 
C95      C      0.460920000000     0.302300000000     0.139560000000     0.0441447  
C96      C      0.576650000000     0.367370000000     0.150380000000     0.16424    
C97      C      0.851530000000     0.276650000000     0.486950000000     0.0415594  
C98      C      0.806610000000     0.335290000000     0.524610000000     0.00409565 
C99      C      0.786860000000     0.222620000000     0.476800000000     0.0485158  
C100     C      0.743110000000     0.284470000000     0.510530000000     0.162815   
C101     C      0.267870000000     0.787290000000     0.643670000000     0.0358088  
C102     C      0.288080000000     0.814050000000     0.549100000000     0.00301795 
C103     C      0.332110000000     0.839940000000     0.657960000000     0.0505971  
C104     C      0.352300000000     0.862820000000     0.562670000000     0.169293   
C105     C      0.835740000000     0.512380000000     0.517270000000     0.031695   
C106     C      0.815090000000     0.502820000000     0.612990000000     0.003138   
C107     C      0.776120000000     0.509560000000     0.504110000000     0.0506748  
C108     C      0.757830000000     0.505340000000     0.600180000000     0.167164   
C109     C      0.271880000000     0.523760000000     0.548290000000     0.0482015  
C110     C      0.303320000000     0.621390000000     0.596360000000     0.0159539  
C111     C      0.329810000000     0.526070000000     0.568050000000     0.0466314  
C112     C      0.363470000000     0.625760000000     0.614300000000     0.164064   
C113     C      0.022430000000     0.534020000000     0.843510000000     0.0372761  
C114     C      0.087270000000     0.650010000000     0.832880000000     0.0066883  
C115     C      0.017680000000     0.527630000000     0.786310000000     0.049483   
C116     C      0.077560000000     0.644030000000     0.774650000000     0.160222   
C117     C      0.051390000000     0.497490000000     0.341750000000     0.0382354  
C118     C      0.122100000000     0.612970000000     0.343630000000     0.00797167 
C119     C      0.049880000000     0.499480000000     0.283820000000     0.0419096  
C120     C      0.118380000000     0.615840000000     0.285280000000     0.165406   
C121     C      0.878560000000     0.340970000000     0.040130000000     0.0517281  
C122     C      0.895730000000     0.312740000000     0.953250000000     0.00618307 
C123     C      0.814400000000     0.288300000000     0.038780000000     0.0451954  
C124     C      0.829860000000     0.257440000000     0.952010000000     0.157474   
C125     C      0.290220000000     0.912470000000     0.124590000000     0.0311231  
C126     C      0.351410000000     0.857920000000     0.131310000000     0.000195454
C127     C      0.230980000000     0.851170000000     0.130610000000     0.0526726  
C128     C      0.294250000000     0.798720000000     0.142890000000     0.168893   
C129     C      0.802480000000     0.609740000000     0.098940000000     0.0444181  
C130     C      0.760640000000     0.499780000000     0.073020000000     0.0134581  
C131     C      0.859630000000     0.612090000000     0.122770000000     0.0408214  
C132     C      0.819070000000     0.502870000000     0.095870000000     0.165244   
C133     C      0.282970000000     0.541630000000     0.994870000000     0.0355741  
C134     C      0.325730000000     0.641630000000     0.041460000000     0.00641253 
C135     C      0.334780000000     0.533850000000     0.019970000000     0.0393883  
C136     C      0.376880000000     0.634190000000     0.067060000000     0.158875   
C137     C      0.796660000000     0.868940000000     0.609860000000     0.0352956  
C138     C      0.849000000000     0.805690000000     0.614500000000     0.00352972 
C139     C      0.734810000000     0.811360000000     0.614470000000     0.0451803  
C140     C      0.788450000000     0.748990000000     0.624930000000     0.152744   
C141     C      0.302500000000     0.332970000000     0.509260000000     0.0337501  
C142     C      0.361220000000     0.290310000000     0.468280000000     0.00554238 
C143     C      0.247780000000     0.269850000000     0.511400000000     0.0444857  
C144     C      0.305660000000     0.226270000000     0.469760000000     0.160008   
C145     C      0.785520000000     0.958230000000     0.500370000000     0.0324644  
C146     C      0.854750000000     0.072190000000     0.519060000000    -0.0214389  
C147     C      0.736240000000     0.957500000000     0.529500000000     0.040358   
C148     C      0.804970000000     0.071160000000     0.548580000000     0.156139   
C149     C      0.323410000000     0.011730000000     0.598290000000     0.0399362  
C150     C      0.304350000000     0.005750000000     0.501070000000     0.0139772  
C151     C      0.262060000000     0.004440000000     0.605100000000     0.0532076  
C152     C      0.239320000000     0.990890000000     0.508100000000     0.172497   
C153     C      0.940330000000     0.764280000000     0.488380000000     0.0410362  
C154     C      0.028670000000     0.807830000000     0.428220000000     0.0119855  
C155     C      0.958850000000     0.719400000000     0.510470000000     0.0445528  
C156     C      0.043780000000     0.758980000000     0.446730000000     0.160947   
C157     C      0.011400000000     0.232590000000     0.606770000000     0.0415421  
C158     C      0.126420000000     0.287140000000     0.629080000000     0.00327742 
C159     C      0.009280000000     0.287120000000     0.623620000000     0.0469395  
C160     C      0.125410000000     0.344420000000     0.641050000000     0.161923   
C161     C      0.021100000000     0.988530000000     0.754130000000     0.0352365  
C162     C      0.006260000000     0.081240000000     0.747720000000     0.00578866 
C163     C      0.028370000000     0.993870000000     0.810930000000     0.0486643  
C164     C      0.018100000000     0.089670000000     0.805150000000     0.163125   
C165     C      0.997170000000     0.007440000000     0.303470000000     0.038049   
C166     C      0.098920000000     0.107150000000     0.317430000000     0.0081699  
C167     C      0.007840000000     0.012020000000     0.247310000000     0.0490334  
C168     C      0.108180000000     0.113960000000     0.260560000000     0.165787   
C169     C      0.760170000000     0.857950000000     0.043880000000     0.0390632  
C170     C      0.792730000000     0.781350000000     0.024670000000    -0.00639871 
C171     C      0.813640000000     0.906950000000     0.015070000000     0.0487785  
C172     C      0.844490000000     0.829530000000     0.993820000000     0.168626   
C173     C      0.287700000000     0.308730000000     0.055560000000     0.0412071  
C174     C      0.322880000000     0.233990000000     0.037790000000     0.00184415 
C175     C      0.346740000000     0.360310000000     0.036140000000     0.0428209  
C176     C      0.384050000000     0.286810000000     0.019850000000     0.152281   
C177     C      0.858900000000     0.101810000000     0.099940000000     0.037253   
C178     C      0.800620000000     0.990170000000     0.128990000000    -0.00271707 
C179     C      0.801240000000     0.104810000000     0.099070000000     0.0509805  
C180     C      0.741840000000     0.992770000000     0.128560000000     0.158212   
C181     C      0.380470000000     0.131860000000     0.924040000000     0.0481834  
C182     C      0.335640000000     0.047490000000     0.992260000000     0.00756414 
C183     C      0.321140000000     0.134040000000     0.920240000000     0.0414309  
C184     C      0.281080000000     0.055420000000     0.993790000000     0.149556   
C185     C      0.084930000000     0.814980000000     0.007360000000     0.0411174  
C186     C      0.985210000000     0.744430000000     0.049800000000     0.0124234  
C187     C      0.081940000000     0.869500000000     0.023470000000     0.0337673  
C188     C      0.983120000000     0.800070000000     0.068390000000     0.16424    
C189     C      0.148820000000     0.335380000000     0.013630000000     0.0341027  
C190     C      0.042540000000     0.263580000000     0.044830000000    -0.014173   
C191     C      0.148830000000     0.387950000000     0.040400000000     0.0429855  
C192     C      0.043610000000     0.314910000000     0.073380000000     0.160772   
Co1      Co     0.064640000000     0.143500000000     0.074480000000     0.982225   
Co2      Co     0.068210000000     0.994980000000     0.987920000000     1.05445    
Co3      Co     0.135260000000     0.121850000000     0.980050000000     1.0412     
Co4      Co     0.988170000000     0.015530000000     0.072830000000     1.13044    
Co5      Co     0.105060000000     0.016310000000     0.480760000000     1.10759    
Co6      Co     0.977270000000     0.062690000000     0.556710000000     1.10221    
Co7      Co     0.976260000000     0.954040000000     0.490200000000     1.06013    
Co8      Co     0.117150000000     0.087260000000     0.599120000000     1.17547    
Co9      Co     0.078210000000     0.517250000000     0.011350000000     1.04778    
Co10     Co     0.047370000000     0.621610000000     0.102520000000     1.07804    
Co11     Co     0.006200000000     0.491180000000     0.095130000000     0.86087    
Co12     Co     0.160070000000     0.671460000000     0.018460000000     1.22277    
Co13     Co     0.065760000000     0.464750000000     0.515140000000     1.18129    
Co14     Co     0.051900000000     0.611300000000     0.577820000000     0.782074   
Co15     Co     0.987870000000     0.465730000000     0.629190000000     1.20376    
Co16     Co     0.114990000000     0.618890000000     0.534190000000     0.818258   
Co17     Co     0.495420000000     0.074040000000     0.078140000000     1.13103    
Co18     Co     0.619830000000     0.069940000000     0.008640000000     1.09531    
Co19     Co     0.593020000000     0.186150000000     0.998840000000     1.09871    
Co20     Co     0.544700000000     0.996640000000     0.081630000000     0.801059   
Co21     Co     0.521050000000     0.057700000000     0.613400000000     1.09885    
Co22     Co     0.588220000000     0.018420000000     0.475610000000     1.14276    
Co23     Co     0.542020000000     0.116800000000     0.516100000000     1.0033     
Co24     Co     0.570260000000     0.957700000000     0.602400000000     1.14034    
Co25     Co     0.560120000000     0.497430000000     0.036880000000     0.826981   
Co26     Co     0.563850000000     0.668080000000     0.096610000000     1.12415    
Co27     Co     0.505150000000     0.506130000000     0.088100000000     0.884255   
Co28     Co     0.661020000000     0.656040000000     0.016990000000     1.188      
Co29     Co     0.562480000000     0.463440000000     0.503270000000     1.16729    
Co30     Co     0.535570000000     0.598970000000     0.590630000000     1.05198    
Co31     Co     0.472170000000     0.467420000000     0.602460000000     1.0255     
Co32     Co     0.649940000000     0.615390000000     0.531450000000     1.08915    
H1       H      0.511910000000     0.444010000000     0.769210000000     0.0492654  
H2       H      0.527250000000     0.452300000000     0.869000000000     0.0538641  
H3       H      0.642410000000     0.662500000000     0.853480000000     0.0738651  
H4       H      0.514340000000     0.468890000000     0.346990000000     0.0479328  
H5       H      0.503980000000     0.483630000000     0.249480000000     0.0543933  
H6       H      0.651730000000     0.687840000000     0.261280000000     0.0776506  
H7       H      0.632750000000     0.877820000000     0.448270000000     0.0305278  
H8       H      0.642890000000     0.779150000000     0.450850000000     0.0561189  
H9       H      0.442340000000     0.662660000000     0.496900000000     0.0726927  
H10      H      0.632820000000     0.262010000000     0.625590000000     0.054895   
H11      H      0.636410000000     0.364710000000     0.602400000000     0.0621342  
H12      H      0.442140000000     0.285290000000     0.660390000000     0.0650594  
H13      H      0.629290000000     0.187190000000     0.829970000000     0.0508315  
H14      H      0.642940000000     0.168390000000     0.735120000000     0.0487131  
H15      H      0.537510000000     0.960070000000     0.766610000000     0.0753273  
H16      H      0.562570000000     0.163650000000     0.237130000000     0.0507955  
H17      H      0.556140000000     0.166620000000     0.336860000000     0.0506174  
H18      H      0.523420000000     0.970310000000     0.353040000000     0.0711596  
H19      H      0.480030000000     0.844290000000     0.984910000000     0.0596554  
H20      H      0.471960000000     0.738290000000     0.986400000000     0.0510726  
H21      H      0.672450000000     0.827540000000     0.942520000000     0.0655249  
H22      H      0.411740000000     0.295660000000     0.139870000000     0.0522856  
H23      H      0.422600000000     0.201540000000     0.115930000000     0.0585608  
H24      H      0.632370000000     0.322150000000     0.130450000000     0.0760783  
H25      H      0.781110000000     0.177870000000     0.459860000000     0.0454212  
H26      H      0.893440000000     0.272100000000     0.477030000000     0.0416074  
H27      H      0.812320000000     0.379980000000     0.541610000000     0.0626564  
H28      H      0.348520000000     0.848010000000     0.701410000000     0.0457446  
H29      H      0.236840000000     0.756440000000     0.676570000000     0.0669536  
H30      H      0.272780000000     0.806930000000     0.505350000000     0.0943907  
H31      H      0.762480000000     0.513000000000     0.460730000000     0.0471369  
H32      H      0.866100000000     0.516300000000     0.483640000000     0.0505685  
H33      H      0.829220000000     0.499530000000     0.656240000000     0.0722178  
H34      H      0.337580000000     0.487060000000     0.554980000000     0.0514623  
H35      H      0.237390000000     0.482520000000     0.522470000000     0.0458984  
H36      H      0.293640000000     0.659310000000     0.609200000000     0.0781712  
H37      H      0.990120000000     0.477850000000     0.770060000000     0.0359286  
H38      H      0.999360000000     0.488870000000     0.868610000000     0.0522651  
H39      H      0.115900000000     0.699010000000     0.850420000000     0.0644865  
H40      H      0.020400000000     0.452770000000     0.262720000000     0.0524716  
H41      H      0.023850000000     0.449390000000     0.362080000000     0.0435498  
H42      H      0.151670000000     0.658640000000     0.366130000000     0.091275   
H43      H      0.785440000000     0.280030000000     0.074690000000     0.0633728  
H44      H      0.896660000000     0.370270000000     0.077360000000     0.0469425  
H45      H      0.926400000000     0.322780000000     0.918290000000     0.0694313  
H46      H      0.184040000000     0.849890000000     0.126550000000     0.053018   
H47      H      0.287980000000     0.957200000000     0.120140000000     0.0677711  
H48      H      0.398230000000     0.858780000000     0.133500000000     0.0770952  
H49      H      0.895930000000     0.656350000000     0.144270000000     0.0647014  
H50      H      0.796940000000     0.652390000000     0.103730000000     0.0657572  
H51      H      0.720720000000     0.453240000000     0.056860000000     0.0737233  
H52      H      0.337450000000     0.491550000000     0.007920000000     0.0426953  
H53      H      0.247640000000     0.504760000000     0.966060000000     0.0431569  
H54      H      0.325410000000     0.686340000000     0.050600000000     0.0813372  
H55      H      0.690950000000     0.815890000000     0.612920000000     0.0517545  
H56      H      0.798360000000     0.915990000000     0.607040000000     0.0477788  
H57      H      0.893340000000     0.801990000000     0.615370000000     0.068579   
H58      H      0.203660000000     0.264670000000     0.528400000000     0.0422056  
H59      H      0.298760000000     0.373230000000     0.525480000000     0.0392733  
H60      H      0.405910000000     0.296950000000     0.451310000000     0.0671872  
H61      H      0.689600000000     0.911590000000     0.532880000000     0.0333097  
H62      H      0.775910000000     0.912160000000     0.482970000000     0.0486454  
H63      H      0.901530000000     0.118230000000     0.516750000000     0.0463402  
H64      H      0.248240000000     0.006140000000     0.646790000000     0.0468918  
H65      H      0.354280000000     0.018460000000     0.635700000000     0.0704245  
H66      H      0.320640000000     0.007050000000     0.459750000000     0.0837948  
H67      H      0.931330000000     0.686600000000     0.544300000000     0.0524388  
H68      H      0.900430000000     0.765770000000     0.507310000000     0.0509299  
H69      H      0.059090000000     0.844450000000     0.397640000000     0.0797587  
H70      H      0.962220000000     0.285750000000     0.619090000000     0.0473835  
H71      H      0.965740000000     0.189350000000     0.592940000000     0.035223   
H72      H      0.173030000000     0.287620000000     0.632280000000     0.0578348  
H73      H      0.036650000000     0.957290000000     0.833570000000     0.0506544  
H74      H      0.023730000000     0.948780000000     0.735340000000     0.0500016  
H75      H      0.997620000000     0.116510000000     0.723230000000     0.071227   
H76      H      0.969720000000     0.973490000000     0.221120000000     0.0587892  
H77      H      0.953400000000     0.964110000000     0.318760000000     0.0559059  
H78      H      0.136960000000     0.144300000000     0.344690000000     0.0766003  
H79      H      0.820320000000     0.956320000000     0.012950000000     0.0592845  
H80      H      0.726700000000     0.870620000000     0.061300000000     0.0533511  
H81      H      0.785050000000     0.731710000000     0.025770000000     0.0438424  
H82      H      0.352120000000     0.408610000000     0.036430000000     0.0574543  
H83      H      0.251830000000     0.320620000000     0.069030000000     0.0463423  
H84      H      0.314730000000     0.184280000000     0.037210000000     0.0743168  
H85      H      0.804840000000     0.151710000000     0.086740000000     0.0552429  
H86      H      0.903380000000     0.146330000000     0.088340000000     0.0564185  
H87      H      0.799120000000     0.944430000000     0.141900000000     0.0723813  
H88      H      0.316160000000     0.167140000000     0.889880000000     0.0533106  
H89      H      0.420520000000     0.165200000000     0.897930000000     0.0534327  
H90      H      0.339450000000     0.014020000000     0.022790000000     0.0693034  
H91      H      0.120610000000     0.917150000000     0.008970000000     0.0359462  
H92      H      0.126670000000     0.824270000000     0.983720000000     0.0415017  
H93      H      0.946070000000     0.695560000000     0.059580000000     0.0646171  
H94      H      0.192400000000     0.436000000000     0.038760000000     0.0423939  
H95      H      0.192020000000     0.345590000000     0.991820000000     0.0417773  
H96      H      0.999080000000     0.215180000000     0.048690000000     0.059035   
N1       N      0.585440000000     0.558170000000     0.868830000000    -0.17827    
N2       N      0.566060000000     0.548990000000     0.752670000000    -0.197741   
N3       N      0.576810000000     0.587180000000     0.247670000000    -0.171452   
N4       N      0.590380000000     0.569630000000     0.363060000000    -0.197928   
N5       N      0.544710000000     0.714010000000     0.477610000000    -0.1702     
N6       N      0.535040000000     0.827680000000     0.477930000000    -0.207021   
N7       N      0.537440000000     0.330840000000     0.625590000000    -0.17914    
N8       N      0.533480000000     0.212230000000     0.651690000000    -0.190014   
N9       N      0.593430000000     0.062880000000     0.744200000000    -0.175344   
N10      N      0.574670000000     0.084170000000     0.853590000000    -0.193637   
N11      N      0.538230000000     0.068320000000     0.352160000000    -0.183012   
N12      N      0.547860000000     0.065320000000     0.237400000000    -0.197481   
N13      N      0.573740000000     0.776100000000     0.970300000000    -0.175895   
N14      N      0.583560000000     0.900000000000     0.968210000000    -0.175608   
N15      N      0.528540000000     0.257590000000     0.114830000000    -0.168389   
N16      N      0.516040000000     0.363760000000     0.145690000000    -0.178053   
N17      N      0.860600000000     0.330260000000     0.515100000000    -0.185933   
N18      N      0.733130000000     0.224810000000     0.493310000000    -0.199072   
N19      N      0.247210000000     0.773430000000     0.588940000000    -0.150773   
N20      N      0.375140000000     0.875190000000     0.617230000000    -0.196344   
N21      N      0.855850000000     0.511730000000     0.571680000000    -0.182751   
N22      N      0.740840000000     0.511790000000     0.545650000000    -0.211636   
N23      N      0.258320000000     0.570950000000     0.562840000000    -0.17696    
N24      N      0.376480000000     0.577600000000     0.599840000000    -0.185267   
N25      N      0.060840000000     0.594750000000     0.866860000000    -0.179515   
N26      N      0.046800000000     0.582180000000     0.751770000000    -0.195294   
N27      N      0.086580000000     0.554340000000     0.371640000000    -0.174031   
N28      N      0.080770000000     0.558590000000     0.255010000000    -0.19609    
N29      N      0.917260000000     0.356830000000     0.995630000000    -0.160524   
N30      N      0.788150000000     0.248980000000     0.993450000000    -0.192239   
N31      N      0.348630000000     0.913880000000     0.118600000000    -0.158247   
N32      N      0.233390000000     0.793920000000     0.134340000000    -0.196041   
N33      N      0.754370000000     0.554700000000     0.071550000000    -0.177535   
N34      N      0.871800000000     0.562030000000     0.114970000000    -0.177898   
N35      N      0.275670000000     0.593010000000     0.009110000000    -0.175768   
N36      N      0.380150000000     0.578290000000     0.058150000000    -0.199595   
N37      N      0.852210000000     0.864790000000     0.603740000000    -0.176473   
N38      N      0.730280000000     0.750790000000     0.618060000000    -0.194387   
N39      N      0.360840000000     0.341890000000     0.492600000000    -0.188599   
N40      N      0.251130000000     0.215760000000     0.496490000000    -0.208814   
N41      N      0.845040000000     0.015380000000     0.495660000000    -0.178187   
N42      N      0.745280000000     0.014260000000     0.551320000000    -0.212802   
N43      N      0.346100000000     0.016790000000     0.546180000000    -0.181441   
N44      N      0.220270000000     0.995140000000     0.560280000000    -0.213452   
N45      N      0.979370000000     0.812280000000     0.451240000000    -0.161919   
N46      N      0.011980000000     0.718610000000     0.491110000000    -0.178046   
N47      N      0.070380000000     0.234260000000     0.607280000000    -0.185856   
N48      N      0.067040000000     0.344610000000     0.635070000000    -0.215832   
N49      N      0.012680000000     0.033630000000     0.722770000000    -0.181898   
N50      N      0.031860000000     0.046990000000     0.836220000000    -0.207844   
N51      N      0.044270000000     0.053300000000     0.338510000000    -0.182667   
N52      N      0.062770000000     0.065370000000     0.225820000000    -0.208418   
N53      N      0.752560000000     0.796420000000     0.051870000000    -0.185962   
N54      N      0.859640000000     0.894270000000     0.995220000000    -0.194752   
N55      N      0.274460000000     0.245120000000     0.054920000000    -0.170149   
N56      N      0.396690000000     0.350670000000     0.020690000000    -0.177808   
N57      N      0.858080000000     0.043670000000     0.111710000000    -0.157616   
N58      N      0.741750000000     0.049520000000     0.109770000000    -0.197044   
N59      N      0.388100000000     0.090040000000     0.961680000000    -0.173255   
N60      N      0.271660000000     0.096100000000     0.955630000000    -0.181909   
N61      N      0.038490000000     0.752270000000     0.022810000000    -0.176971   
N62      N      0.032700000000     0.863140000000     0.055740000000    -0.189503   
N63      N      0.094800000000     0.273000000000     0.014890000000    -0.168962   
N64      N      0.094920000000     0.378880000000     0.067580000000    -0.195514   
O1       O      0.043860000000     0.162890000000     0.003200000000    -0.408739   
O2       O      0.970230000000     0.935030000000     0.984450000000    -0.388851   
O3       O      0.078440000000     0.110060000000     0.914540000000    -0.40759    
O4       O      0.913010000000     0.984720000000     0.110450000000    -0.406182   
O5       O      0.051850000000     0.008690000000     0.917560000000    -0.510972   
O6       O      0.966870000000     0.092640000000     0.088360000000    -0.44828    
O7       O      0.938200000000     0.001850000000     0.004840000000    -0.425603   
O8       O      0.142850000000     0.216340000000     0.978380000000    -0.329769   
O9       O      0.084380000000     0.127840000000     0.147260000000    -0.446982   
O10      O      0.163060000000     0.045880000000     0.975880000000    -0.444999   
O11      O      0.193740000000     0.138510000000     0.044420000000    -0.395113   
O12      O      0.983780000000     0.923990000000     0.079160000000    -0.327998   
O13      O      0.085150000000     0.974580000000     0.059800000000    -0.414686   
O14      O      0.164550000000     0.204420000000     0.073230000000    -0.37691    
O15      O      0.032700000000     0.022680000000     0.140190000000    -0.462065   
O16      O      0.208050000000     0.146840000000     0.936210000000    -0.382673   
O17      O      0.065020000000     0.069220000000     0.030320000000    -0.603428   
O18      O      0.096270000000     0.061330000000     0.421150000000    -0.474567   
O19      O      0.035500000000     0.152300000000     0.545680000000    -0.454543   
O20      O      0.895540000000     0.958550000000     0.478040000000    -0.379676   
O21      O      0.171910000000     0.152510000000     0.555140000000    -0.514207   
O22      O      0.953740000000     0.062220000000     0.481710000000    -0.439999   
O23      O      0.188000000000     0.101240000000     0.491700000000    -0.412764   
O24      O      0.097030000000     0.154130000000     0.617070000000    -0.444419   
O25      O      0.991880000000     0.994330000000     0.415770000000    -0.421627   
O26      O      0.115700000000     0.968380000000     0.536540000000    -0.486262   
O27      O      0.910820000000     0.972820000000     0.575920000000    -0.443025   
O28      O      0.928420000000     0.873020000000     0.457210000000    -0.38576    
O29      O      0.058960000000     0.022170000000     0.648240000000    -0.461258   
O30      O      0.993160000000     0.062940000000     0.635850000000    -0.445022   
O31      O      0.036380000000     0.923980000000     0.459540000000    -0.467289   
O32      O      0.167870000000     0.043130000000     0.595760000000    -0.457784   
O33      O      0.950610000000     0.909210000000     0.560710000000    -0.418455   
O34      O      0.045550000000     0.039480000000     0.531560000000    -0.548596   
O35      O      0.028380000000     0.432070000000     0.976120000000    -0.367523   
O36      O      0.012850000000     0.643440000000     0.035150000000    -0.428705   
O37      O      0.949200000000     0.530760000000     0.103850000000    -0.422112   
O38      O      0.128940000000     0.645750000000     0.942980000000    -0.462162   
O39      O      0.984500000000     0.629980000000     0.137930000000    -0.387212   
O40      O      0.041180000000     0.549600000000     0.954110000000    -0.429513   
O41      O      0.111130000000     0.716620000000     0.013770000000    -0.472775   
O42      O      0.970270000000     0.464810000000     0.020910000000    -0.433452   
O43      O      0.164900000000     0.548700000000     0.975290000000    -0.383142   
O44      O      0.082670000000     0.610930000000     0.171860000000    -0.419136   
O45      O      0.036780000000     0.426900000000     0.095730000000    -0.400892   
O46      O      0.196080000000     0.701190000000     0.087400000000    -0.457683   
O47      O      0.120370000000     0.718100000000     0.116680000000    -0.362653   
O48      O      0.126690000000     0.488480000000     0.060510000000    -0.421575   
O49      O      0.215760000000     0.641550000000     0.019070000000    -0.496643   
O50      O      0.035430000000     0.505320000000     0.172000000000    -0.413563   
O51      O      0.094980000000     0.587390000000     0.061110000000    -0.57836    
O52      O      0.973880000000     0.394320000000     0.511690000000    -0.456354   
O53      O      0.040810000000     0.683950000000     0.573060000000    -0.3396     
O54      O      0.933460000000     0.505440000000     0.629460000000    -0.449211   
O55      O      0.126150000000     0.599950000000     0.458530000000    -0.352518   
O56      O      0.962540000000     0.557950000000     0.551660000000    -0.401214   
O57      O      0.043910000000     0.499090000000     0.452170000000    -0.467291   
O58      O      0.051420000000     0.645390000000     0.496010000000    -0.370952   
O59      O      0.924120000000     0.406840000000     0.579390000000    -0.491238   
O60      O      0.159880000000     0.522950000000     0.511470000000    -0.442      
O61      O      0.036010000000     0.605030000000     0.658400000000    -0.334916   
O62      O      0.025650000000     0.412240000000     0.639530000000    -0.486581   
O63      O      0.176970000000     0.704500000000     0.520750000000    -0.344633   
O64      O      0.147660000000     0.676060000000     0.606090000000    -0.367962   
O65      O      0.088750000000     0.424630000000     0.572860000000    -0.496137   
O66      O      0.182470000000     0.603480000000     0.565800000000    -0.391765   
O67      O      0.047200000000     0.520340000000     0.683090000000    -0.46181    
O68      O      0.052280000000     0.526440000000     0.566550000000    -0.529592   
O69      O      0.451840000000     0.052090000000     0.006000000000    -0.425102   
O70      O      0.644720000000     0.014280000000     0.980270000000    -0.378768   
O71      O      0.598180000000     0.154790000000     0.926230000000    -0.4275     
O72      O      0.447740000000     0.962620000000     0.075960000000    -0.416114   
O73      O      0.559050000000     0.050850000000     0.945060000000    -0.406742   
O74      O      0.414960000000     0.027220000000     0.109610000000    -0.406553   
O75      O      0.542520000000     0.958140000000     0.009420000000    -0.398481   
O76      O      0.500180000000     0.154750000000     0.976720000000    -0.419527   
O77      O      0.536340000000     0.102290000000     0.149990000000    -0.435244   
O78      O      0.694170000000     0.148310000000     0.972020000000    -0.362855   
O79      O      0.589290000000     0.227310000000     0.065150000000    -0.409674   
O80      O      0.628610000000     0.002660000000     0.099950000000    -0.398858   
O81      O      0.687120000000     0.097690000000     0.066030000000    -0.434575   
O82      O      0.487340000000     0.152790000000     0.081120000000    -0.39491    
O83      O      0.546790000000     0.017080000000     0.156600000000    -0.407663   
O84      O      0.684320000000     0.222750000000     0.014870000000    -0.428519   
O85      O      0.578100000000     0.104690000000     0.046220000000    -0.625211   
O86      O      0.439580000000     0.026810000000     0.583960000000    -0.486093   
O87      O      0.534520000000     0.924730000000     0.468300000000    -0.428817   
O88      O      0.552730000000     0.119000000000     0.435460000000    -0.410994   
O89      O      0.480240000000     0.903520000000     0.604460000000    -0.443329   
O90      O      0.517810000000     0.017250000000     0.436730000000    -0.457784   
O91      O      0.464890000000     0.970410000000     0.652490000000    -0.375254   
O92      O      0.565760000000     0.900150000000     0.547350000000    -0.456293   
O93      O      0.445390000000     0.067850000000     0.501830000000    -0.406587   
O94      O      0.605460000000     0.092240000000     0.652110000000    -0.436843   
O95      O      0.655430000000     0.115740000000     0.471530000000    -0.428898   
O96      O      0.534320000000     0.147730000000     0.585800000000    -0.502896   
O97      O      0.663520000000     0.009490000000     0.599820000000    -0.449235   
O98      O      0.658660000000     0.014070000000     0.508820000000    -0.497505   
O99      O      0.499510000000     0.100750000000     0.666660000000    -0.370583   
O100     O      0.576670000000     0.993020000000     0.674230000000    -0.44472    
O101     O      0.630950000000     0.169050000000     0.528020000000    -0.443894   
O102     O      0.550610000000     0.026470000000     0.549630000000    -0.519798   
O103     O      0.512550000000     0.404620000000     0.019660000000    -0.320758   
O104     O      0.533700000000     0.686500000000     0.028130000000    -0.446672   
O105     O      0.430680000000     0.516540000000     0.074920000000    -0.400563   
O106     O      0.634210000000     0.619280000000     0.946590000000    -0.470207   
O107     O      0.475310000000     0.609530000000     0.113790000000    -0.436484   
O108     O      0.560780000000     0.514800000000     0.957170000000    -0.381696   
O109     O      0.626570000000     0.716030000000     0.988950000000    -0.424454   
O110     O      0.464330000000     0.462700000000     0.017080000000    -0.42901    
O111     O      0.645390000000     0.502470000000     0.037390000000    -0.371573   
O112     O      0.593910000000     0.651290000000     0.167910000000    -0.415078   
O113     O      0.458250000000     0.420260000000     0.124390000000    -0.349282   
O114     O      0.693390000000     0.692020000000     0.085150000000    -0.471619   
O115     O      0.651060000000     0.750360000000     0.088140000000    -0.410142   
O116     O      0.564850000000     0.471030000000     0.115350000000    -0.4161     
O117     O      0.701590000000     0.609160000000     0.039480000000    -0.483252   
O118     O      0.532220000000     0.543220000000     0.162320000000    -0.381373   
O119     O      0.576770000000     0.593810000000     0.054600000000    -0.524633   
O120     O      0.472720000000     0.401880000000     0.499170000000    -0.484821   
O121     O      0.509290000000     0.612480000000     0.517870000000    -0.431592   
O122     O      0.439760000000     0.528670000000     0.606470000000    -0.499575   
O123     O      0.641400000000     0.595880000000     0.451470000000    -0.408526   
O124     O      0.489470000000     0.635820000000     0.617370000000    -0.364994   
O125     O      0.547980000000     0.503880000000     0.440060000000    -0.466418   
O126     O      0.613090000000     0.671930000000     0.501840000000    -0.416168   
O127     O      0.419400000000     0.441000000000     0.535990000000    -0.456138   
O128     O      0.654460000000     0.503850000000     0.491530000000    -0.469569   
O129     O      0.562930000000     0.591590000000     0.665480000000    -0.409426   
O130     O      0.487330000000     0.392960000000     0.607520000000    -0.428111   
O131     O      0.667690000000     0.640760000000     0.604060000000    -0.430589   
O132     O      0.616350000000     0.692480000000     0.597410000000    -0.359392   
O133     O      0.576400000000     0.418490000000     0.564620000000    -0.45663    
O134     O      0.692790000000     0.571550000000     0.557930000000    -0.445202   
O135     O      0.514450000000     0.486480000000     0.674960000000    -0.441586   
O136     O      0.562560000000     0.535930000000     0.557210000000    -0.530101   


