data_structure

_audit_creation_method RASPA-1.0
_audit_creation_date 2023-6-4
_audit_author_name 'Poobodin Mano'

_cell_length_a    39.8816
_cell_length_b    39.7405
_cell_length_c    40.6346
_cell_angle_alpha 87.1332
_cell_angle_beta  93.8187
_cell_angle_gamma 120.431
_cell_volume      55397.1

_symmetry_cell_setting          triclinic
_symmetry_space_group_name_Hall 'P 1'
_symmetry_space_group_name_H-M  'P 1'
_symmetry_Int_Tables_number     1

_symmetry_equiv_pos_as_xyz 'x,y,z'

loop_
_atom_site_label
_atom_site_type_symbol
_atom_site_fract_x
_atom_site_fract_y
_atom_site_fract_z
_atom_site_charge
C1       C      0.066330000000     0.105720000000     0.031020000000     0.368168   
C2       C      0.951140000000     0.911890000000     0.063230000000     0.492008   
C3       C      0.020550000000     0.006510000000     0.992460000000     0.454644   
C4       C      0.965800000000     0.020570000000     0.111580000000     0.492568   
C5       C      0.045560000000     0.019590000000     0.154980000000     0.480731   
C6       C      0.110960000000     0.021470000000     0.032450000000     0.487952   
C7       C      0.096870000000     0.110610000000     0.104270000000     0.365602   
C8       C      0.043000000000     0.928810000000     0.097340000000     0.491361   
C9       C      0.062940000000     0.097240000000     0.491020000000     0.457632   
C10      C      0.099790000000     0.182040000000     0.629150000000     0.482404   
C11      C      0.018950000000     0.129320000000     0.551750000000     0.460887   
C12      C      0.178520000000     0.201090000000     0.550850000000     0.483118   
C13      C      0.177920000000     0.113770000000     0.578680000000     0.48855    
C14      C      0.989350000000     0.054320000000     0.613000000000     0.414493   
C15      C      0.084860000000     0.037860000000     0.546740000000     0.451499   
C16      C      0.087950000000     0.087410000000     0.653180000000     0.484016   
C17      C      0.940070000000     0.439500000000     0.031120000000     0.457107   
C18      C      0.058470000000     0.608190000000     0.023550000000     0.456013   
C19      C      0.945570000000     0.500870000000     0.075960000000     0.461859   
C20      C      0.054950000000     0.547530000000     0.974270000000     0.460904   
C21      C      0.094080000000     0.494930000000     0.023730000000     0.456024   
C22      C      0.028160000000     0.523020000000     0.132690000000     0.468193   
C23      C      0.024760000000     0.428390000000     0.052450000000     0.46137    
C24      C      0.100110000000     0.594420000000     0.097140000000     0.457836   
C25      C      0.032090000000     0.519510000000     0.511830000000     0.455035   
C26      C      0.107220000000     0.693190000000     0.544710000000     0.459274   
C27      C      0.032810000000     0.624860000000     0.573630000000     0.454943   
C28      C      0.101740000000     0.589840000000     0.473920000000     0.46579    
C29      C      0.186130000000     0.620440000000     0.532440000000     0.460085   
C30      C      0.070500000000     0.576730000000     0.631170000000     0.461091   
C31      C      0.074610000000     0.515060000000     0.590560000000     0.453821   
C32      C      0.187250000000     0.679490000000     0.574400000000     0.459019   
C33      C      0.450210000000     0.003790000000     0.057280000000     0.461908   
C34      C      0.568090000000     0.955740000000     0.036290000000     0.456631   
C35      C      0.556460000000     0.017870000000     0.988480000000     0.452404   
C36      C      0.457370000000     0.939550000000     0.099670000000     0.453735   
C37      C      0.544070000000     0.995840000000     0.152360000000     0.449381   
C38      C      0.598840000000     0.104430000000     0.037220000000     0.452894   
C39      C      0.534330000000     0.094720000000     0.079390000000     0.461417   
C40      C      0.613700000000     0.007370000000     0.110230000000     0.45963    
C41      C      0.514600000000     0.105080000000     0.528020000000     0.448614   
C42      C      0.629340000000     0.040800000000     0.550770000000     0.489613   
C43      C      0.581500000000     0.088050000000     0.482230000000     0.469705   
C44      C      0.528880000000     0.008930000000     0.594710000000     0.481349   
C45      C      0.579300000000     0.095020000000     0.646030000000     0.469269   
C46      C      0.676880000000     0.170280000000     0.502800000000     0.40706    
C47      C      0.581670000000     0.170690000000     0.585130000000     0.446694   
C48      C      0.686690000000     0.136500000000     0.586950000000     0.486232   
C49      C      0.441690000000     0.430330000000     0.032740000000     0.493821   
C50      C      0.565330000000     0.612870000000     0.022450000000     0.44522    
C51      C      0.443150000000     0.520270000000     0.073170000000     0.487379   
C52      C      0.527410000000     0.519070000000     0.972110000000     0.474284   
C53      C      0.615650000000     0.530160000000     0.013480000000     0.431864   
C54      C      0.521430000000     0.527750000000     0.135700000000     0.470205   
C55      C      0.523520000000     0.435660000000     0.084840000000     0.496923   
C56      C      0.602380000000     0.579370000000     0.091880000000     0.459432   
C57      C      0.536960000000     0.530920000000     0.506710000000     0.459915   
C58      C      0.594340000000     0.688990000000     0.532870000000     0.473078   
C59      C      0.522730000000     0.602760000000     0.586230000000     0.491336   
C60      C      0.617640000000     0.596070000000     0.475520000000     0.451648   
C61      C      0.686920000000     0.624580000000     0.547300000000     0.451891   
C62      C      0.592130000000     0.585300000000     0.634470000000     0.507065   
C63      C      0.555040000000     0.501960000000     0.581530000000     0.377045   
C64      C      0.680670000000     0.702220000000     0.572620000000     0.477952   
C65      C      0.559420000000     0.536680000000     0.675980000000     0.0776305  
C66      C      0.550950000000     0.526650000000     0.709150000000    -0.0944912  
C67      C      0.572510000000     0.553980000000     0.733780000000     0.0508625  
C68      C      0.603850000000     0.590160000000     0.724310000000    -0.0960133  
C69      C      0.611600000000     0.599110000000     0.691050000000     0.0777764  
C70      C      0.561490000000     0.545990000000     0.768890000000    -0.00748601 
C71      C      0.522090000000     0.525580000000     0.777040000000    -0.0349097  
C72      C      0.511910000000     0.521030000000     0.809990000000    -0.0358933  
C73      C      0.540890000000     0.537230000000     0.835430000000    -0.00687075 
C74      C      0.580160000000     0.556740000000     0.827390000000    -0.0357303  
C75      C      0.590330000000     0.560870000000     0.794620000000    -0.0350163  
C76      C      0.530860000000     0.533670000000     0.870470000000     0.0504189  
C77      C      0.504260000000     0.497570000000     0.884410000000    -0.0940926  
C78      C      0.500750000000     0.493700000000     0.918660000000     0.0751055  
C79      C      0.545990000000     0.561180000000     0.924930000000     0.0775556  
C80      C      0.550410000000     0.566010000000     0.890960000000    -0.094345   
C81      C      0.599970000000     0.608600000000     0.421460000000     0.0735455  
C82      C      0.595220000000     0.602770000000     0.387600000000    -0.0950653  
C83      C      0.604430000000     0.577010000000     0.374050000000     0.0498101  
C84      C      0.618960000000     0.557870000000     0.395230000000    -0.0942496  
C85      C      0.624170000000     0.565070000000     0.429230000000     0.0740123  
C86      C      0.597370000000     0.569700000000     0.338080000000    -0.0072216  
C87      C      0.609940000000     0.601130000000     0.315380000000    -0.0361052  
C88      C      0.599510000000     0.594620000000     0.281770000000    -0.0353707  
C89      C      0.575760000000     0.556470000000     0.270030000000    -0.0071008  
C90      C      0.564120000000     0.524970000000     0.292780000000    -0.0350754  
C91      C      0.575030000000     0.531520000000     0.326370000000    -0.0355935  
C92      C      0.562420000000     0.549600000000     0.234450000000     0.0497606  
C93      C      0.554010000000     0.575520000000     0.215990000000    -0.0942586  
C94      C      0.540700000000     0.568080000000     0.182920000000     0.0752892  
C95      C      0.543460000000     0.509860000000     0.185760000000     0.0750985  
C96      C      0.557250000000     0.516640000000     0.218660000000    -0.0941193  
C97      C      0.587390000000     0.729300000000     0.490520000000     0.074917   
C98      C      0.591840000000     0.765540000000     0.480490000000    -0.0970922  
C99      C      0.600070000000     0.793310000000     0.504220000000     0.0518726  
C100     C      0.600650000000     0.783240000000     0.537570000000    -0.0983914  
C101     C      0.595560000000     0.746820000000     0.546690000000     0.0781377  
C102     C      0.608810000000     0.833190000000     0.495180000000    -0.009214   
C103     C      0.645510000000     0.864970000000     0.504190000000    -0.0358675  
C104     C      0.651220000000     0.902670000000     0.504140000000    -0.035776   
C105     C      0.620090000000     0.908860000000     0.495630000000    -0.00871087 
C106     C      0.584450000000     0.877570000000     0.483680000000    -0.0363112  
C107     C      0.578890000000     0.839920000000     0.483320000000    -0.0359694  
C108     C      0.621690000000     0.944380000000     0.507000000000     0.0513964  
C109     C      0.650970000000     0.982080000000     0.498210000000    -0.095944   
C110     C      0.653100000000     0.014540000000     0.512640000000     0.0772675  
C111     C      0.599120000000     0.972610000000     0.544710000000     0.0789679  
C112     C      0.595490000000     0.940010000000     0.530230000000    -0.0974794  
C113     C      0.581130000000     0.465000000000     0.607230000000     0.0707869  
C114     C      0.578830000000     0.429520000000     0.615120000000    -0.0923221  
C115     C      0.543600000000     0.394480000000     0.610470000000     0.0470905  
C116     C      0.510510000000     0.396710000000     0.599440000000    -0.0906908  
C117     C      0.513890000000     0.433230000000     0.591740000000     0.0690481  
C118     C      0.543210000000     0.356630000000     0.614350000000    -0.0066465  
C119     C      0.568980000000     0.352640000000     0.637590000000    -0.03588    
C120     C      0.574740000000     0.320790000000     0.636870000000    -0.0361183  
C121     C      0.553930000000     0.291480000000     0.613680000000    -0.00795908 
C122     C      0.526040000000     0.293650000000     0.592100000000    -0.0359483  
C123     C      0.520920000000     0.326030000000     0.592240000000    -0.0357279  
C124     C      0.562980000000     0.260010000000     0.610460000000     0.0499168  
C125     C      0.599540000000     0.268730000000     0.600520000000    -0.0939843  
C126     C      0.606200000000     0.238470000000     0.593670000000     0.0736488  
C127     C      0.542570000000     0.191510000000     0.609260000000     0.0749829  
C128     C      0.534610000000     0.220990000000     0.615440000000    -0.0959757  
C129     C      0.540860000000     0.077320000000     0.693230000000     0.0759136  
C130     C      0.537340000000     0.070100000000     0.727250000000    -0.0955969  
C131     C      0.570650000000     0.081090000000     0.747990000000     0.0500452  
C132     C      0.607090000000     0.101200000000     0.734050000000    -0.0951787  
C133     C      0.609520000000     0.107630000000     0.699990000000     0.073897   
C134     C      0.567530000000     0.069830000000     0.783600000000    -0.00763482 
C135     C      0.539590000000     0.032000000000     0.793860000000    -0.0355827  
C136     C      0.538090000000     0.020540000000     0.827090000000    -0.0360418  
C137     C      0.564420000000     0.046680000000     0.850920000000    -0.00727627 
C138     C      0.592080000000     0.084650000000     0.840650000000    -0.0357183  
C139     C      0.593690000000     0.096040000000     0.807400000000    -0.0358698  
C140     C      0.562470000000     0.034930000000     0.886480000000     0.0494118  
C141     C      0.526530000000     0.011830000000     0.900860000000    -0.0944451  
C142     C      0.525120000000     0.004350000000     0.934860000000     0.0720192  
C143     C      0.594000000000     0.040110000000     0.940670000000     0.0755778  
C144     C      0.596480000000     0.048030000000     0.906740000000    -0.0949231  
C145     C      0.532330000000     0.962150000000     0.204670000000     0.0735234  
C146     C      0.530490000000     0.962500000000     0.239060000000    -0.0954585  
C147     C      0.542970000000     0.997870000000     0.254610000000     0.0504373  
C148     C      0.558990000000     0.032320000000     0.235800000000    -0.0964509  
C149     C      0.560920000000     0.031010000000     0.201900000000     0.0720629  
C150     C      0.538980000000     0.999940000000     0.290190000000    -0.00810061 
C151     C      0.514140000000     0.012330000000     0.300480000000    -0.036218   
C152     C      0.515200000000     0.021470000000     0.333440000000    -0.0357059  
C153     C      0.541720000000     0.019130000000     0.356740000000    -0.0070773  
C154     C      0.565350000000     0.004950000000     0.346490000000    -0.0353789  
C155     C      0.563830000000     0.995280000000     0.313550000000    -0.0354627  
C156     C      0.546970000000     0.034190000000     0.390770000000     0.0504994  
C157     C      0.557430000000     0.017350000000     0.417630000000    -0.0942873  
C158     C      0.567280000000     0.034900000000     0.448410000000     0.0794296  
C159     C      0.553750000000     0.083800000000     0.427720000000     0.0765505  
C160     C      0.544210000000     0.067300000000     0.396420000000    -0.0932596  
C161     C      0.543910000000     0.892620000000     0.014520000000     0.0724083  
C162     C      0.549990000000     0.862920000000     0.004980000000    -0.0943492  
C163     C      0.587910000000     0.869470000000     0.004180000000     0.0495713  
C164     C      0.619140000000     0.906800000000     0.011340000000    -0.095091   
C165     C      0.612010000000     0.936100000000     0.020270000000     0.0746822  
C166     C      0.594240000000     0.836460000000     0.998440000000    -0.00748874 
C167     C      0.572210000000     0.809460000000     0.973660000000    -0.0359163  
C168     C      0.573040000000     0.774870000000     0.971880000000    -0.0359136  
C169     C      0.595560000000     0.766210000000     0.995080000000    -0.00698195 
C170     C      0.619830000000     0.794560000000     0.018330000000    -0.035744   
C171     C      0.619230000000     0.829390000000     0.019930000000    -0.0354793  
C172     C      0.589360000000     0.725930000000     0.998010000000     0.0484781  
C173     C      0.551410000000     0.694010000000     0.995410000000    -0.0943113  
C174     C      0.544430000000     0.656440000000     0.002370000000     0.0712919  
C175     C      0.611880000000     0.680270000000     0.012620000000     0.0725924  
C176     C      0.619960000000     0.718680000000     0.006150000000    -0.0931097  
C177     C      0.555530000000     0.149080000000     0.114160000000     0.0752402  
C178     C      0.559220000000     0.185130000000     0.120240000000    -0.0965786  
C179     C      0.548090000000     0.203740000000     0.095470000000     0.0514673  
C180     C      0.533840000000     0.185880000000     0.064890000000    -0.0968554  
C181     C      0.530010000000     0.149700000000     0.059820000000     0.0776627  
C182     C      0.550490000000     0.241320000000     0.101300000000    -0.00828503 
C183     C      0.534630000000     0.246350000000     0.129250000000    -0.0358516  
C184     C      0.533280000000     0.280520000000     0.132690000000    -0.0358663  
C185     C      0.548240000000     0.310290000000     0.108430000000    -0.00828963 
C186     C      0.565300000000     0.305590000000     0.081120000000    -0.0354053  
C187     C      0.566380000000     0.271510000000     0.077600000000    -0.0361497  
C188     C      0.544140000000     0.345220000000     0.109820000000     0.0509304  
C189     C      0.508710000000     0.341910000000     0.117250000000    -0.0961931  
C190     C      0.502980000000     0.373690000000     0.111230000000     0.0765405  
C191     C      0.567460000000     0.412320000000     0.093500000000     0.0762929  
C192     C      0.574320000000     0.381590000000     0.099630000000    -0.0973502  
C193     C      0.001360000000     0.452570000000     0.497000000000     0.0748829  
C194     C      0.967240000000     0.417040000000     0.490140000000    -0.0951263  
C195     C      0.931650000000     0.415990000000     0.484910000000     0.0493216  
C196     C      0.931830000000     0.451370000000     0.483870000000    -0.094904   
C197     C      0.966380000000     0.486260000000     0.490640000000     0.0712546  
C198     C      0.894070000000     0.378300000000     0.483960000000    -0.0075322  
C199     C      0.887950000000     0.347010000000     0.464740000000    -0.0358372  
C200     C      0.852050000000     0.311820000000     0.464440000000    -0.035937   
C201     C      0.821750000000     0.307150000000     0.483630000000    -0.00706571 
C202     C      0.828660000000     0.338260000000     0.503520000000    -0.0358554  
C203     C      0.864070000000     0.373310000000     0.503470000000    -0.0355787  
C204     C      0.782960000000     0.270400000000     0.483530000000     0.0479116  
C205     C      0.779060000000     0.233330000000     0.481880000000    -0.093396   
C206     C      0.742640000000     0.199570000000     0.486230000000     0.0704306  
C207     C      0.713820000000     0.238290000000     0.491990000000     0.0746876  
C208     C      0.749230000000     0.272260000000     0.487060000000    -0.0935718  
C209     C      0.250130000000     0.726810000000     0.557710000000     0.0789915  
C210     C      0.290000000000     0.750220000000     0.563930000000    -0.0962011  
C211     C      0.306870000000     0.748680000000     0.594850000000     0.0512458  
C212     C      0.282910000000     0.722240000000     0.618740000000    -0.09575    
C213     C      0.242870000000     0.698520000000     0.611430000000     0.0749651  
C214     C      0.348370000000     0.777860000000     0.602360000000    -0.00861535 
C215     C      0.375910000000     0.787610000000     0.578430000000    -0.036302   
C216     C      0.411500000000     0.822510000000     0.580350000000    -0.0363722  
C217     C      0.420390000000     0.847940000000     0.606490000000    -0.00862766 
C218     C      0.394970000000     0.836040000000     0.632450000000    -0.0358211  
C219     C      0.359090000000     0.801180000000     0.630390000000    -0.0356434  
C220     C      0.451190000000     0.889300000000     0.603080000000     0.0505722  
C221     C      0.480740000000     0.908220000000     0.627480000000    -0.0969443  
C222     C      0.507450000000     0.948260000000     0.623960000000     0.0747414  
C223     C      0.475270000000     0.950780000000     0.573440000000     0.0751753  
C224     C      0.448990000000     0.910930000000     0.575710000000    -0.0967171  
C225     C      0.981110000000     0.630030000000     0.546470000000     0.0746245  
C226     C      0.952850000000     0.640760000000     0.545640000000    -0.0945231  
C227     C      0.950740000000     0.660980000000     0.571870000000     0.0495583  
C228     C      0.978710000000     0.671300000000     0.598150000000    -0.0940668  
C229     C      0.007180000000     0.660380000000     0.598010000000     0.0739734  
C230     C      0.917440000000     0.668030000000     0.572290000000    -0.00722637 
C231     C      0.903550000000     0.678180000000     0.542960000000    -0.035817   
C232     C      0.867820000000     0.676930000000     0.541440000000    -0.0352653  
C233     C      0.845080000000     0.665750000000     0.569280000000    -0.00704353 
C234     C      0.860440000000     0.658580000000     0.599290000000    -0.0356978  
C235     C      0.896190000000     0.659670000000     0.600780000000    -0.03572    
C236     C      0.804160000000     0.657830000000     0.566070000000     0.0498729  
C237     C      0.774550000000     0.625630000000     0.582460000000    -0.0937218  
C238     C      0.735730000000     0.615660000000     0.576540000000     0.0763159  
C239     C      0.754360000000     0.669260000000     0.539270000000     0.0757146  
C240     C      0.793620000000     0.680190000000     0.544740000000    -0.0937926  
C241     C      0.238020000000     0.622070000000     0.565210000000     0.0771412  
C242     C      0.276360000000     0.630970000000     0.570000000000    -0.0953976  
C243     C      0.302460000000     0.650120000000     0.545120000000     0.0504512  
C244     C      0.289560000000     0.661870000000     0.516190000000    -0.0950592  
C245     C      0.250730000000     0.653360000000     0.512550000000     0.073132   
C246     C      0.341140000000     0.653190000000     0.548850000000    -0.00813983 
C247     C      0.352920000000     0.637670000000     0.524830000000    -0.035711   
C248     C      0.383960000000     0.631060000000     0.531840000000    -0.0353632  
C249     C      0.403890000000     0.639960000000     0.562970000000    -0.00758428 
C250     C      0.393870000000     0.658200000000     0.586050000000    -0.0354458  
C251     C      0.362840000000     0.664750000000     0.579050000000    -0.0362756  
C252     C      0.433780000000     0.628700000000     0.571790000000     0.051494   
C253     C      0.428180000000     0.592770000000     0.562080000000    -0.094924   
C254     C      0.457220000000     0.583300000000     0.569090000000     0.0791392  
C255     C      0.496410000000     0.643030000000     0.596760000000     0.0780231  
C256     C      0.467960000000     0.653430000000     0.590150000000    -0.095685   
C257     C      0.025500000000     0.549840000000     0.922390000000     0.074567   
C258     C      0.026760000000     0.554190000000     0.888300000000    -0.0963136  
C259     C      0.061950000000     0.567490000000     0.873320000000     0.0512548  
C260     C      0.095910000000     0.578980000000     0.893250000000    -0.0966374  
C261     C      0.093620000000     0.574480000000     0.927460000000     0.0759496  
C262     C      0.062310000000     0.566170000000     0.837140000000    -0.00812579 
C263     C      0.040460000000     0.578110000000     0.816450000000    -0.0357619  
C264     C      0.039010000000     0.574530000000     0.782350000000    -0.0356102  
C265     C      0.059400000000     0.558970000000     0.768400000000    -0.00801612 
C266     C      0.080990000000     0.546760000000     0.789120000000    -0.0358512  
C267     C      0.082470000000     0.550370000000     0.823170000000    -0.035536   
C268     C      0.060750000000     0.558490000000     0.732240000000     0.051254   
C269     C      0.027320000000     0.547130000000     0.711590000000    -0.0961191  
C270     C      0.030570000000     0.551380000000     0.677420000000     0.075647   
C271     C      0.098650000000     0.576170000000     0.684060000000     0.0746262  
C272     C      0.096440000000     0.572020000000     0.718070000000    -0.0966678  
C273     C      0.053560000000     0.511530000000     0.183800000000     0.0765718  
C274     C      0.062130000000     0.517690000000     0.217510000000    -0.0961687  
C275     C      0.054860000000     0.543800000000     0.233060000000     0.0520143  
C276     C      0.039670000000     0.563830000000     0.214080000000    -0.0966187  
C277     C      0.031380000000     0.556930000000     0.180410000000     0.0776342  
C278     C      0.062420000000     0.549630000000     0.269040000000    -0.00785714 
C279     C      0.051890000000     0.517550000000     0.290770000000    -0.0353087  
C280     C      0.057880000000     0.522940000000     0.324790000000    -0.0353336  
C281     C      0.074420000000     0.560490000000     0.337650000000    -0.00784507 
C282     C      0.085490000000     0.592610000000     0.315880000000    -0.0354784  
C283     C      0.079530000000     0.587230000000     0.281920000000    -0.0353599  
C284     C      0.079730000000     0.566350000000     0.373680000000     0.0518911  
C285     C      0.094370000000     0.546950000000     0.394260000000    -0.0962871  
C286     C      0.100840000000     0.554490000000     0.427960000000     0.0769098  
C287     C      0.077450000000     0.598840000000     0.421360000000     0.0767454  
C288     C      0.070680000000     0.592030000000     0.387680000000    -0.0964416  
C289     C      0.651010000000     0.165430000000     0.055560000000     0.073701   
C290     C      0.677340000000     0.204950000000     0.050310000000    -0.0941698  
C291     C      0.675780000000     0.223240000000     0.020390000000     0.0491832  
C292     C      0.646430000000     0.201300000000     0.996620000000    -0.0948193  
C293     C      0.619740000000     0.161760000000     0.003070000000     0.0726408  
C294     C      0.706820000000     0.264150000000     0.013930000000    -0.00756041 
C295     C      0.729870000000     0.273580000000     0.986440000000    -0.0359979  
C296     C      0.765430000000     0.308900000000     0.985100000000    -0.0352623  
C297     C      0.778250000000     0.335190000000     0.011200000000    -0.00843457 
C298     C      0.753090000000     0.327540000000     0.036760000000    -0.0354251  
C299     C      0.717800000000     0.292340000000     0.038160000000    -0.0369696  
C300     C      0.820080000000     0.365070000000     0.015910000000     0.0510351  
C301     C      0.841170000000     0.393010000000     0.991610000000    -0.0943508  
C302     C      0.881430000000     0.418730000000     0.997130000000     0.0747128  
C303     C      0.879720000000     0.388550000000     0.049290000000     0.0770569  
C304     C      0.839890000000     0.363470000000     0.045010000000    -0.0979145  
C305     C      0.400070000000     0.907100000000     0.130830000000     0.0732952  
C306     C      0.363160000000     0.874660000000     0.136290000000    -0.0949526  
C307     C      0.345980000000     0.844430000000     0.113550000000     0.0496776  
C308     C      0.366090000000     0.847410000000     0.085710000000    -0.0948857  
C309     C      0.403140000000     0.879590000000     0.081450000000     0.0736585  
C310     C      0.307430000000     0.809370000000     0.118540000000    -0.00804221 
C311     C      0.302980000000     0.781440000000     0.143110000000    -0.0362596  
C312     C      0.267810000000     0.745840000000     0.144900000000    -0.0360058  
C313     C      0.236320000000     0.737980000000     0.122550000000    -0.00828791 
C314     C      0.240510000000     0.766690000000     0.098790000000    -0.035692   
C315     C      0.275850000000     0.801840000000     0.096600000000    -0.0365831  
C316     C      0.199970000000     0.699200000000     0.122220000000     0.0491153  
C317     C      0.163550000000     0.696520000000     0.119330000000    -0.0961628  
C318     C      0.129930000000     0.660410000000     0.113740000000     0.0749779  
C319     C      0.167170000000     0.629070000000     0.115440000000     0.0713048  
C320     C      0.201400000000     0.664700000000     0.121650000000    -0.0944643  
C321     C      0.905560000000     0.527270000000     0.062190000000     0.0829404  
C322     C      0.869410000000     0.523300000000     0.055310000000    -0.0988488  
C323     C      0.835850000000     0.487910000000     0.061810000000     0.0524136  
C324     C      0.839750000000     0.458220000000     0.078760000000    -0.0942788  
C325     C      0.877230000000     0.463670000000     0.086150000000     0.0773836  
C326     C      0.797940000000     0.483560000000     0.049820000000    -0.00799373 
C327     C      0.794950000000     0.498350000000     0.018190000000    -0.0356723  
C328     C      0.763560000000     0.503460000000     0.008930000000    -0.0361234  
C329     C      0.733900000000     0.492800000000     0.030680000000    -0.00864009 
C330     C      0.734930000000     0.474810000000     0.061160000000    -0.0358089  
C331     C      0.766930000000     0.470390000000     0.070790000000    -0.03599    
C332     C      0.703170000000     0.502470000000     0.022300000000     0.0513403  
C333     C      0.712650000000     0.541330000000     0.016590000000    -0.0953293  
C334     C      0.682960000000     0.550310000000     0.011750000000     0.0743699  
C335     C      0.635380000000     0.483010000000     0.015220000000     0.0788153  
C336     C      0.664180000000     0.473130000000     0.020890000000    -0.0980447  
C337     C      0.122480000000     0.465270000000     0.994380000000     0.0731434  
C338     C      0.150790000000     0.454190000000     0.993420000000    -0.0940541  
C339     C      0.173550000000     0.456390000000     0.022070000000     0.0505972  
C340     C      0.166260000000     0.468300000000     0.051200000000    -0.0955667  
C341     C      0.138780000000     0.479740000000     0.051090000000     0.0775876  
C342     C      0.208080000000     0.451460000000     0.021980000000    -0.00741334 
C343     C      0.217550000000     0.434830000000     0.049750000000    -0.0361238  
C344     C      0.255380000000     0.441900000000     0.055740000000    -0.035608   
C345     C      0.284600000000     0.464700000000     0.033490000000    -0.00808971 
C346     C      0.273560000000     0.476810000000     0.003510000000    -0.0353113  
C347     C      0.235820000000     0.470620000000     0.997980000000    -0.0355545  
C348     C      0.326520000000     0.478620000000     0.042950000000     0.0500157  
C349     C      0.337190000000     0.457630000000     0.065870000000    -0.0985989  
C350     C      0.376040000000     0.472870000000     0.076750000000     0.0820975  
C351     C      0.395120000000     0.528280000000     0.041560000000     0.077552   
C352     C      0.356330000000     0.514600000000     0.031040000000    -0.0948823  
C353     C      0.723590000000     0.770520000000     0.565200000000     0.0756386  
C354     C      0.748460000000     0.807460000000     0.578250000000    -0.0957921  
C355     C      0.757250000000     0.811710000000     0.612360000000     0.0498425  
C356     C      0.740980000000     0.778020000000     0.632490000000    -0.0959491  
C357     C      0.716660000000     0.741530000000     0.618590000000     0.0728621  
C358     C      0.785250000000     0.850670000000     0.626430000000    -0.00782057 
C359     C      0.812320000000     0.854180000000     0.652030000000    -0.0352304  
C360     C      0.843040000000     0.890830000000     0.661180000000    -0.0364735  
C361     C      0.847760000000     0.924760000000     0.644640000000    -0.00702154 
C362     C      0.818580000000     0.921670000000     0.621560000000    -0.0356494  
C363     C      0.787540000000     0.884940000000     0.612580000000    -0.0352714  
C364     C      0.886790000000     0.960400000000     0.644720000000     0.0492807  
C365     C      0.918380000000     0.956170000000     0.638200000000    -0.0952629  
C366     C      0.953190000000     0.988540000000     0.629660000000     0.0748085  
C367     C      0.928740000000     0.030610000000     0.638320000000     0.0715648  
C368     C      0.892400000000     0.998220000000     0.645790000000    -0.0927414  
C369     C      0.212190000000     0.248730000000     0.508550000000     0.0743547  
C370     C      0.246390000000     0.281140000000     0.497270000000    -0.0945368  
C371     C      0.279280000000     0.300320000000     0.518820000000     0.0501015  
C372     C      0.276140000000     0.287460000000     0.551790000000    -0.0961326  
C373     C      0.241720000000     0.255250000000     0.562190000000     0.0774699  
C374     C      0.317120000000     0.333000000000     0.507400000000    -0.00730245 
C375     C      0.318880000000     0.363110000000     0.486520000000    -0.0354863  
C376     C      0.354950000000     0.395360000000     0.478450000000    -0.0356062  
C377     C      0.390050000000     0.398040000000     0.490870000000    -0.00664995 
C378     C      0.388080000000     0.367030000000     0.510590000000    -0.034793   
C379     C      0.352200000000     0.335020000000     0.518680000000    -0.0356851  
C380     C      0.428510000000     0.434300000000     0.486320000000     0.0507063  
C381     C      0.462400000000     0.432430000000     0.483300000000    -0.0935746  
C382     C      0.499040000000     0.466180000000     0.486750000000     0.0774222  
C383     C      0.469570000000     0.504320000000     0.492310000000     0.0801759  
C384     C      0.432490000000     0.471200000000     0.489010000000    -0.0924848  
C385     C      0.960510000000     0.123880000000     0.526900000000     0.0752757  
C386     C      0.931650000000     0.134060000000     0.527580000000    -0.0932135  
C387     C      0.938680000000     0.166290000000     0.545770000000     0.0501562  
C388     C      0.976080000000     0.190100000000     0.559750000000    -0.0945338  
C389     C      0.004200000000     0.179300000000     0.558320000000     0.0788116  
C390     C      0.906230000000     0.172200000000     0.553750000000    -0.00734334 
C391     C      0.878860000000     0.170500000000     0.529280000000    -0.0363424  
C392     C      0.846370000000     0.172360000000     0.537830000000    -0.0350626  
C393     C      0.840270000000     0.175050000000     0.571070000000    -0.00803389 
C394     C      0.868150000000     0.177760000000     0.595410000000    -0.0359076  
C395     C      0.900950000000     0.176720000000     0.586810000000    -0.0357498  
C396     C      0.802970000000     0.170750000000     0.580460000000     0.0521268  
C397     C      0.788210000000     0.193040000000     0.564840000000    -0.0954635  
C398     C      0.750120000000     0.183800000000     0.570110000000     0.0797468  
C399     C      0.742040000000     0.132760000000     0.607390000000     0.0799267  
C400     C      0.780190000000     0.141690000000     0.603250000000    -0.0959118  
C401     C      0.216000000000     0.096320000000     0.549360000000     0.0788685  
C402     C      0.245710000000     0.087900000000     0.548090000000    -0.0983673  
C403     C      0.265320000000     0.085740000000     0.577170000000     0.0518955  
C404     C      0.253070000000     0.090220000000     0.607380000000    -0.0963782  
C405     C      0.222340000000     0.097770000000     0.607800000000     0.0763595  
C406     C      0.300430000000     0.082370000000     0.575000000000    -0.00847235 
C407     C      0.300140000000     0.055570000000     0.553510000000    -0.0356217  
C408     C      0.334780000000     0.057180000000     0.546640000000    -0.0359579  
C409     C      0.370450000000     0.085850000000     0.560930000000    -0.00789772 
C410     C      0.370480000000     0.111340000000     0.583750000000    -0.0362013  
C411     C      0.335760000000     0.109500000000     0.590840000000    -0.0355015  
C412     C      0.407640000000     0.090490000000     0.550800000000     0.0488287  
C413     C      0.412090000000     0.058040000000     0.547740000000    -0.0961608  
C414     C      0.447730000000     0.063320000000     0.538880000000     0.0655644  
C415     C      0.473940000000     0.131810000000     0.534380000000     0.0748155  
C416     C      0.438900000000     0.127620000000     0.543520000000    -0.0968022  
C417     C      0.060550000000     0.970690000000     0.559330000000     0.0759103  
C418     C      0.060860000000     0.936120000000     0.556360000000    -0.0941555  
C419     C      0.088890000000     0.935330000000     0.537930000000     0.0494158  
C420     C      0.115670000000     0.970040000000     0.521960000000    -0.0931162  
C421     C      0.114120000000     0.004300000000     0.525030000000     0.0739045  
C422     C      0.090390000000     0.898580000000     0.536620000000    -0.00689149 
C423     C      0.081460000000     0.873700000000     0.564560000000    -0.0355396  
C424     C      0.082080000000     0.839000000000     0.563900000000    -0.0353842  
C425     C      0.092520000000     0.828280000000     0.535530000000    -0.00726165 
C426     C      0.101130000000     0.852790000000     0.507330000000    -0.035791   
C427     C      0.100110000000     0.887610000000     0.507880000000    -0.0358042  
C428     C      0.096450000000     0.792830000000     0.536650000000     0.0498019  
C429     C      0.112340000000     0.784160000000     0.565270000000    -0.0961173  
C430     C      0.115180000000     0.750690000000     0.567310000000     0.0766372  
C431     C      0.087890000000     0.733720000000     0.512900000000     0.0727719  
C432     C      0.084340000000     0.767240000000     0.510080000000    -0.0931617  
C433     C      0.125450000000     0.250440000000     0.633850000000     0.0776117  
C434     C      0.119870000000     0.282040000000     0.637470000000    -0.0950023  
C435     C      0.082790000000     0.275460000000     0.643410000000     0.0510008  
C436     C      0.052390000000     0.237000000000     0.647220000000    -0.0958165  
C437     C      0.059180000000     0.206090000000     0.644220000000     0.0779606  
C438     C      0.075630000000     0.308610000000     0.643570000000    -0.00795272 
C439     C      0.100360000000     0.341770000000     0.662230000000    -0.0356713  
C440     C      0.096320000000     0.374760000000     0.659470000000    -0.035689   
C441     C      0.068010000000     0.375720000000     0.637390000000    -0.00692059 
C442     C      0.042020000000     0.341680000000     0.619960000000    -0.0357029  
C443     C      0.045660000000     0.308420000000     0.623180000000    -0.0347862  
C444     C      0.068460000000     0.413130000000     0.629830000000     0.0491307  
C445     C      0.104040000000     0.448290000000     0.628630000000    -0.0945575  
C446     C      0.105120000000     0.482440000000     0.617270000000     0.0730114  
C447     C      0.036410000000     0.448980000000     0.609680000000     0.0738676  
C448     C      0.034230000000     0.414050000000     0.621120000000    -0.0938642  
C449     C      0.043370000000     0.044330000000     0.692680000000     0.0792113  
C450     C      0.033870000000     0.033700000000     0.725600000000    -0.0932079  
C451     C      0.062770000000     0.049890000000     0.751140000000     0.0504072  
C452     C      0.101310000000     0.075030000000     0.742100000000    -0.0942869  
C453     C      0.109510000000     0.085970000000     0.709040000000     0.0786794  
C454     C      0.052730000000     0.042280000000     0.786790000000    -0.00624329 
C455     C      0.019830000000     0.007580000000     0.797310000000    -0.0351647  
C456     C      0.009920000000     0.001570000000     0.830440000000    -0.0352445  
C457     C      0.033070000000     0.029640000000     0.854370000000    -0.00578545 
C458     C      0.066230000000     0.064010000000     0.843830000000    -0.0350337  
C459     C      0.075500000000     0.070460000000     0.810690000000    -0.0345016  
C460     C      0.023860000000     0.022930000000     0.890220000000     0.0491885  
C461     C      0.004640000000     0.985160000000     0.904370000000    -0.0924486  
C462     C      0.000630000000     0.979970000000     0.938560000000     0.0762162  
C463     C      0.032870000000     0.048330000000     0.945330000000     0.0772163  
C464     C      0.036140000000     0.054520000000     0.911260000000    -0.0921968  
C465     C      0.084910000000     0.125300000000     0.437830000000     0.0698623  
C466     C      0.087780000000     0.120910000000     0.404310000000    -0.0950484  
C467     C      0.068540000000     0.083570000000     0.390820000000     0.0497309  
C468     C      0.045410000000     0.051540000000     0.411050000000    -0.0960104  
C469     C      0.042710000000     0.057010000000     0.444160000000     0.0756023  
C470     C      0.072330000000     0.077520000000     0.355870000000    -0.00755216 
C471     C      0.066240000000     0.099370000000     0.330500000000    -0.0357136  
C472     C      0.066630000000     0.091270000000     0.297470000000    -0.0350521  
C473     C      0.073720000000     0.061500000000     0.289050000000    -0.00721268 
C474     C      0.081270000000     0.040700000000     0.314640000000    -0.0354886  
C475     C      0.080320000000     0.048440000000     0.347630000000    -0.0361423  
C476     C      0.071130000000     0.050940000000     0.253860000000     0.0504736  
C477     C      0.082390000000     0.079480000000     0.228680000000    -0.0941342  
C478     C      0.075240000000     0.068580000000     0.195690000000     0.0773502  
C479     C      0.049100000000     0.002090000000     0.211540000000     0.076162   
C480     C      0.055280000000     0.011910000000     0.244850000000    -0.0948241  
C481     C      0.647450000000     0.638860000000     0.118010000000     0.0788316  
C482     C      0.686160000000     0.668410000000     0.122680000000    -0.0952207  
C483     C      0.716080000000     0.661480000000     0.115780000000     0.0523078  
C484     C      0.706510000000     0.623490000000     0.108650000000    -0.0951465  
C485     C      0.667510000000     0.594600000000     0.104440000000     0.0809706  
C486     C      0.755750000000     0.694720000000     0.110710000000    -0.00726947 
C487     C      0.772820000000     0.726360000000     0.132130000000    -0.0364388  
C488     C      0.806610000000     0.760720000000     0.123780000000    -0.0356064  
C489     C      0.823750000000     0.764260000000     0.093650000000    -0.00841745 
C490     C      0.808050000000     0.731730000000     0.073230000000    -0.0350486  
C491     C      0.774380000000     0.697270000000     0.081700000000    -0.0351123  
C492     C      0.856080000000     0.802580000000     0.082710000000     0.0510601  
C493     C      0.855210000000     0.836580000000     0.088210000000    -0.0975943  
C494     C      0.886430000000     0.872770000000     0.079770000000     0.0745956  
C495     C      0.918470000000     0.842710000000     0.058230000000     0.0767104  
C496     C      0.887640000000     0.805790000000     0.066610000000    -0.0971508  
C497     C      0.374880000000     0.405480000000     0.021140000000     0.0788031  
C498     C      0.337310000000     0.374100000000     0.023590000000    -0.0972992  
C499     C      0.331560000000     0.336510000000     0.028610000000     0.0515878  
C500     C      0.363140000000     0.330720000000     0.025180000000    -0.0958903  
C501     C      0.400440000000     0.363030000000     0.021770000000     0.0774803  
C502     C      0.294820000000     0.305190000000     0.042280000000    -0.00861302 
C503     C      0.276680000000     0.314070000000     0.066340000000    -0.0342662  
C504     C      0.244670000000     0.284450000000     0.082240000000    -0.0376254  
C505     C      0.230520000000     0.245390000000     0.074740000000    -0.00652106 
C506     C      0.247780000000     0.236490000000     0.050050000000    -0.0365931  
C507     C      0.279590000000     0.266090000000     0.033950000000    -0.0347062  
C508     C      0.197610000000     0.213540000000     0.092140000000     0.0497404  
C509     C      0.163120000000     0.214100000000     0.095220000000    -0.0920441  
C510     C      0.129570000000     0.179760000000     0.104230000000     0.0720417  
C511     C      0.165190000000     0.146720000000     0.111390000000     0.0780397  
C512     C      0.199160000000     0.180340000000     0.102740000000    -0.0924162  
C513     C      0.904890000000     0.989930000000     0.136750000000     0.0802951  
C514     C      0.870700000000     0.988810000000     0.144010000000    -0.0977564  
C515     C      0.865610000000     0.020420000000     0.135210000000     0.0521391  
C516     C      0.895830000000     0.053320000000     0.120110000000    -0.095088   
C517     C      0.929620000000     0.053320000000     0.112830000000     0.078425   
C518     C      0.827750000000     0.017670000000     0.139540000000    -0.00794213 
C519     C      0.793230000000     0.984650000000     0.128410000000    -0.0355013  
C520     C      0.757480000000     0.982640000000     0.130180000000    -0.0350721  
C521     C      0.755240000000     0.013390000000     0.143560000000    -0.00771273 
C522     C      0.789820000000     0.045900000000     0.155800000000    -0.0353648  
C523     C      0.825770000000     0.048160000000     0.153530000000    -0.0358354  
C524     C      0.717500000000     0.012790000000     0.141720000000     0.0500141  
C525     C      0.682040000000     0.977440000000     0.143610000000    -0.0953412  
C526     C      0.647070000000     0.976420000000     0.134970000000     0.0766018  
C527     C      0.680780000000     0.045040000000     0.126660000000     0.0740618  
C528     C      0.716330000000     0.047060000000     0.134540000000    -0.0950698  
C529     C      0.179370000000     0.048870000000     0.041430000000     0.0785821  
C530     C      0.213050000000     0.047100000000     0.038050000000    -0.0953516  
C531     C      0.212010000000     0.018780000000     0.018030000000     0.0515101  
C532     C      0.177120000000     0.993890000000     0.000640000000    -0.0971483  
C533     C      0.143940000000     0.996210000000     0.004850000000     0.079531   
C534     C      0.246370000000     0.013680000000     0.017080000000    -0.00827912 
C535     C      0.284280000000     0.046190000000     0.018950000000    -0.0353995  
C536     C      0.316450000000     0.041100000000     0.022570000000    -0.0359172  
C537     C      0.311430000000     0.003500000000     0.023810000000    -0.00910003 
C538     C      0.273950000000     0.971010000000     0.019980000000    -0.0358051  
C539     C      0.241610000000     0.976020000000     0.016810000000    -0.035073   
C540     C      0.344940000000     0.998540000000     0.033230000000     0.0522552  
C541     C      0.359980000000     0.984050000000     0.011330000000    -0.0965609  
C542     C      0.394580000000     0.984140000000     0.020240000000     0.0735949  
C543     C      0.397150000000     0.009530000000     0.072590000000     0.07812    
C544     C      0.363190000000     0.010310000000     0.064380000000    -0.0985066  
C545     C      0.026820000000     0.866310000000     0.119590000000     0.0778475  
C546     C      0.031560000000     0.834010000000     0.117460000000    -0.0981809  
C547     C      0.064710000000     0.838630000000     0.103260000000     0.0518203  
C548     C      0.094500000000     0.875990000000     0.095120000000    -0.0976498  
C549     C      0.088230000000     0.907230000000     0.096590000000     0.0778761  
C550     C      0.064200000000     0.805140000000     0.089150000000    -0.00842441 
C551     C      0.038730000000     0.787060000000     0.061930000000    -0.0360812  
C552     C      0.040590000000     0.758460000000     0.045130000000    -0.0356692  
C553     C      0.067440000000     0.746670000000     0.055680000000    -0.00889934 
C554     C      0.093020000000     0.764980000000     0.083100000000    -0.0350643  
C555     C      0.091760000000     0.794430000000     0.099430000000    -0.037338   
C556     C      0.066710000000     0.713500000000     0.039740000000     0.0500879  
C557     C      0.031180000000     0.681660000000     0.028760000000    -0.0970858  
C558     C      0.029700000000     0.647720000000     0.019520000000     0.0712921  
C559     C      0.098050000000     0.676990000000     0.028570000000     0.0769868  
C560     C      0.100730000000     0.711700000000     0.037690000000    -0.0968632  
C561     C      0.038030000000     0.391520000000     0.017440000000     0.0827322  
C562     C      0.050200000000     0.365440000000     0.011820000000    -0.0984933  
C563     C      0.061570000000     0.349160000000     0.038310000000     0.05263    
C564     C      0.064240000000     0.363000000000     0.070130000000    -0.0945547  
C565     C      0.053090000000     0.390770000000     0.074790000000     0.0760143  
C566     C      0.066650000000     0.315470000000     0.032220000000    -0.00786636 
C567     C      0.041450000000     0.287680000000     0.008890000000    -0.0348323  
C568     C      0.044750000000     0.255440000000     0.002820000000    -0.0357048  
C569     C      0.072670000000     0.249330000000     0.020470000000    -0.00684448 
C570     C      0.098550000000     0.277340000000     0.043410000000    -0.0349725  
C571     C      0.095550000000     0.310200000000     0.049250000000    -0.0351002  
C572     C      0.071590000000     0.211810000000     0.017340000000     0.0499341  
C573     C      0.035670000000     0.176930000000     0.016430000000    -0.0924226  
C574     C      0.034440000000     0.141340000000     0.017880000000     0.0771094  
C575     C      0.103350000000     0.173560000000     0.018080000000     0.0721326  
C576     C      0.105710000000     0.209940000000     0.017010000000    -0.0927351  
Co1      Co     0.041230000000     0.056980000000     0.087760000000     0.84904    
Co2      Co     0.030490000000     0.962050000000     0.040510000000     1.14114    
Co3      Co     0.069260000000     0.054400000000     0.054310000000     0.830546   
Co4      Co     0.993910000000     0.963290000000     0.110670000000     1.15866    
Co5      Co     0.125150000000     0.125920000000     0.531850000000     1.09707    
Co6      Co     0.052110000000     0.107930000000     0.599880000000     1.03233    
Co7      Co     0.038040000000     0.067800000000     0.555010000000     0.899497   
Co8      Co     0.144460000000     0.149780000000     0.609820000000     1.12261    
Co9      Co     0.014650000000     0.482030000000     0.009100000000     1.07561    
Co10     Co     0.018740000000     0.556570000000     0.069760000000     1.12117    
Co11     Co     0.997680000000     0.468290000000     0.085690000000     1.06271    
Co12     Co     0.089860000000     0.556820000000     0.041190000000     1.08203    
Co13     Co     0.112610000000     0.561300000000     0.539560000000     1.10654    
Co14     Co     0.112050000000     0.639650000000     0.593610000000     1.08793    
Co15     Co     0.039530000000     0.561760000000     0.563690000000     1.06353    
Co16     Co     0.131510000000     0.647750000000     0.517910000000     1.0585     
Co17     Co     0.512950000000     0.024000000000     0.107760000000     1.09038    
Co18     Co     0.597450000000     0.037000000000     0.054730000000     1.08285    
Co19     Co     0.519910000000     0.037210000000     0.029620000000     1.05897    
Co20     Co     0.530950000000     0.958880000000     0.088230000000     1.05999    
Co21     Co     0.538870000000     0.081210000000     0.579130000000     1.11165    
Co22     Co     0.633710000000     0.113830000000     0.533710000000     1.0676     
Co23     Co     0.596610000000     0.147620000000     0.528790000000     0.890895   
Co24     Co     0.609720000000     0.069860000000     0.602870000000     1.12849    
Co25     Co     0.526630000000     0.473140000000     0.026310000000     1.01571    
Co26     Co     0.522980000000     0.566580000000     0.071270000000     1.0582     
Co27     Co     0.478740000000     0.475200000000     0.087000000000     1.1334     
Co28     Co     0.574090000000     0.547180000000     0.033480000000     1.07334    
Co29     Co     0.612410000000     0.562980000000     0.539500000000     0.891903   
Co30     Co     0.609710000000     0.649050000000     0.592440000000     1.15097    
Co31     Co     0.557910000000     0.561410000000     0.564640000000     1.09608    
Co32     Co     0.633070000000     0.652470000000     0.518150000000     1.11232    
H1       H      0.541210000000     0.515210000000     0.657610000000     0.02975    
H2       H      0.527130000000     0.497940000000     0.715340000000     0.0537436  
H3       H      0.621350000000     0.612390000000     0.742270000000     0.0523823  
H4       H      0.635280000000     0.628000000000     0.684910000000     0.0236443  
H5       H      0.499040000000     0.514130000000     0.757920000000     0.037797   
H6       H      0.481410000000     0.505790000000     0.815520000000     0.0377582  
H7       H      0.603160000000     0.568670000000     0.846560000000     0.0391815  
H8       H      0.620930000000     0.575910000000     0.789470000000     0.037065   
H9       H      0.488190000000     0.471960000000     0.869300000000     0.0531548  
H10      H      0.481720000000     0.464810000000     0.928800000000     0.0260771  
H11      H      0.563130000000     0.586700000000     0.940040000000     0.031402   
H12      H      0.570310000000     0.594680000000     0.880940000000     0.0544856  
H13      H      0.592000000000     0.628610000000     0.430720000000     0.0255198  
H14      H      0.583490000000     0.617770000000     0.372140000000     0.0532408  
H15      H      0.626410000000     0.537700000000     0.385580000000     0.0528867  
H16      H      0.635450000000     0.549870000000     0.444990000000     0.0231986  
H17      H      0.627490000000     0.630900000000     0.323730000000     0.0369193  
H18      H      0.609920000000     0.619600000000     0.265060000000     0.0363511  
H19      H      0.545400000000     0.495180000000     0.284920000000     0.0370646  
H20      H      0.564520000000     0.506780000000     0.343390000000     0.0382721  
H21      H      0.556920000000     0.601130000000     0.227100000000     0.0516427  
H22      H      0.534440000000     0.588790000000     0.169660000000     0.0217899  
H23      H      0.539930000000     0.483890000000     0.174720000000     0.0274521  
H24      H      0.564080000000     0.496140000000     0.231470000000     0.0526271  
H25      H      0.582890000000     0.709020000000     0.471520000000     0.0238019  
H26      H      0.590460000000     0.772370000000     0.454470000000     0.0531737  
H27      H      0.605920000000     0.803840000000     0.556520000000     0.0540572  
H28      H      0.597330000000     0.740690000000     0.572860000000     0.0199832  
H29      H      0.668880000000     0.860190000000     0.513530000000     0.0376978  
H30      H      0.678760000000     0.926210000000     0.513820000000     0.0377557  
H31      H      0.559980000000     0.881730000000     0.477190000000     0.0374222  
H32      H      0.550340000000     0.815700000000     0.476500000000     0.0378228  
H33      H      0.672040000000     0.986340000000     0.480560000000     0.0537722  
H34      H      0.675830000000     0.043430000000     0.505330000000     0.0300286  
H35      H      0.578160000000     0.967440000000     0.562850000000     0.0282102  
H36      H      0.572970000000     0.911290000000     0.538120000000     0.0544574  
H37      H      0.609530000000     0.490990000000     0.610540000000     0.0298892  
H38      H      0.605440000000     0.429840000000     0.623110000000     0.0518645  
H39      H      0.482440000000     0.370470000000     0.595920000000     0.0502475  
H40      H      0.488250000000     0.433840000000     0.581930000000     0.0295124  
H41      H      0.585850000000     0.374870000000     0.655710000000     0.03691    
H42      H      0.596010000000     0.319390000000     0.654040000000     0.0382557  
H43      H      0.509640000000     0.271250000000     0.573980000000     0.0375036  
H44      H      0.501070000000     0.328000000000     0.573800000000     0.0362687  
H45      H      0.622240000000     0.298750000000     0.596630000000     0.0537664  
H46      H      0.634270000000     0.246300000000     0.584630000000     0.0275466  
H47      H      0.519290000000     0.161620000000     0.612670000000     0.0224135  
H48      H      0.506150000000     0.213280000000     0.623420000000     0.0522687  
H49      H      0.514310000000     0.067220000000     0.677930000000     0.021343   
H50      H      0.508640000000     0.055250000000     0.737150000000     0.0521646  
H51      H      0.633620000000     0.110330000000     0.749130000000     0.0525384  
H52      H      0.638290000000     0.122030000000     0.690160000000     0.0252796  
H53      H      0.519470000000     0.010880000000     0.776050000000     0.0369869  
H54      H      0.516690000000     0.990940000000     0.834010000000     0.0370218  
H55      H      0.612250000000     0.105870000000     0.858360000000     0.0367442  
H56      H      0.615280000000     0.125520000000     0.800360000000     0.0370174  
H57      H      0.499450000000     0.000960000000     0.886270000000     0.0516694  
H58      H      0.496630000000     0.987510000000     0.945060000000     0.0254777  
H59      H      0.621000000000     0.051870000000     0.955560000000     0.02246    
H60      H      0.624940000000     0.064980000000     0.896570000000     0.0521892  
H61      H      0.521210000000     0.934250000000     0.193050000000     0.0223358  
H62      H      0.518310000000     0.935350000000     0.253170000000     0.0530756  
H63      H      0.569530000000     0.060220000000     0.247240000000     0.0542119  
H64      H      0.573130000000     0.058580000000     0.188330000000     0.0276865  
H65      H      0.494820000000     0.016230000000     0.282710000000     0.0376056  
H66      H      0.495960000000     0.031390000000     0.340420000000     0.0367278  
H67      H      0.586550000000     0.003220000000     0.363450000000     0.0378734  
H68      H      0.583650000000     0.986340000000     0.305960000000     0.038658   
H69      H      0.558870000000     0.991150000000     0.414860000000     0.0533177  
H70      H      0.576380000000     0.021470000000     0.468200000000     0.0316742  
H71      H      0.552540000000     0.110120000000     0.430740000000     0.0255155  
H72      H      0.536540000000     0.081670000000     0.376520000000     0.0524648  
H73      H      0.514060000000     0.885890000000     0.015850000000     0.0269649  
H74      H      0.524990000000     0.834430000000     0.999780000000     0.0525196  
H75      H      0.648900000000     0.913140000000     0.010640000000     0.0527323  
H76      H      0.636980000000     0.964340000000     0.026390000000     0.0234051  
H77      H      0.553220000000     0.814450000000     0.956380000000     0.0375031  
H78      H      0.554640000000     0.754050000000     0.953190000000     0.0372191  
H79      H      0.637310000000     0.788780000000     0.036710000000     0.0368831  
H80      H      0.636430000000     0.849580000000     0.039400000000     0.0368841  
H81      H      0.526740000000     0.698010000000     0.989600000000     0.0521597  
H82      H      0.514360000000     0.632880000000     0.000860000000     0.0280731  
H83      H      0.636000000000     0.675720000000     0.019750000000     0.0299754  
H84      H      0.649790000000     0.742520000000     0.008160000000     0.0528307  
H85      H      0.564210000000     0.135360000000     0.133980000000     0.0247518  
H86      H      0.570740000000     0.198350000000     0.144090000000     0.0527135  
H87      H      0.524770000000     0.199360000000     0.045170000000     0.053043   
H88      H      0.518360000000     0.136650000000     0.035890000000     0.021748   
H89      H      0.521990000000     0.223310000000     0.147780000000     0.0368905  
H90      H      0.520120000000     0.283440000000     0.154030000000     0.0365848  
H91      H      0.576560000000     0.327690000000     0.061710000000     0.0364795  
H92      H      0.579000000000     0.268430000000     0.055950000000     0.0373974  
H93      H      0.484700000000     0.314300000000     0.125430000000     0.0523885  
H94      H      0.474530000000     0.369580000000     0.115310000000     0.0212218  
H95      H      0.591130000000     0.439490000000     0.084080000000     0.0269705  
H96      H      0.602580000000     0.385750000000     0.094730000000     0.0516789  
H97      H      0.028000000000     0.451930000000     0.502600000000     0.0226676  
H98      H      0.968390000000     0.390360000000     0.490940000000     0.0524116  
H99      H      0.905060000000     0.451930000000     0.479090000000     0.0524973  
H100     H      0.964840000000     0.512720000000     0.490840000000     0.0247006  
H101     H      0.910660000000     0.350000000000     0.449560000000     0.0371778  
H102     H      0.847860000000     0.288590000000     0.448810000000     0.0368452  
H103     H      0.806780000000     0.335530000000     0.519590000000     0.0376051  
H104     H      0.868220000000     0.396410000000     0.519290000000     0.0372344  
H105     H      0.804180000000     0.230290000000     0.478980000000     0.0499662  
H106     H      0.741070000000     0.171520000000     0.486340000000     0.0299288  
H107     H      0.688930000000     0.241500000000     0.495810000000     0.0257048  
H108     H      0.750190000000     0.299990000000     0.486920000000     0.0525799  
H109     H      0.238490000000     0.729600000000     0.533500000000     0.0213345  
H110     H      0.307250000000     0.770670000000     0.544900000000     0.0528371  
H111     H      0.294940000000     0.720270000000     0.642980000000     0.051484   
H112     H      0.225080000000     0.678510000000     0.630490000000     0.0243809  
H113     H      0.368670000000     0.769760000000     0.556880000000     0.0373684  
H114     H      0.430850000000     0.831030000000     0.560170000000     0.0371644  
H115     H      0.401180000000     0.855330000000     0.652760000000     0.0375442  
H116     H      0.338420000000     0.794450000000     0.649160000000     0.036988   
H117     H      0.483040000000     0.892260000000     0.649070000000     0.0525788  
H118     H      0.530000000000     0.962190000000     0.643270000000     0.0214996  
H119     H      0.472030000000     0.966440000000     0.551980000000     0.0285722  
H120     H      0.426180000000     0.897310000000     0.556560000000     0.0536831  
H121     H      0.980840000000     0.613730000000     0.525730000000     0.0311012  
H122     H      0.931700000000     0.631680000000     0.524990000000     0.0530591  
H123     H      0.978310000000     0.687230000000     0.618830000000     0.0515092  
H124     H      0.027960000000     0.668270000000     0.618890000000     0.021432   
H125     H      0.919520000000     0.685400000000     0.520680000000     0.0374511  
H126     H      0.857080000000     0.682560000000     0.517850000000     0.0370765  
H127     H      0.844190000000     0.650720000000     0.621440000000     0.0371198  
H128     H      0.905980000000     0.651690000000     0.623760000000     0.0369244  
H129     H      0.780970000000     0.607070000000     0.598840000000     0.0527611  
H130     H      0.713920000000     0.590000000000     0.589350000000     0.0280359  
H131     H      0.747500000000     0.687030000000     0.522210000000     0.0223087  
H132     H      0.815480000000     0.705750000000     0.531940000000     0.0522046  
H133     H      0.218850000000     0.606380000000     0.585120000000     0.0331708  
H134     H      0.284940000000     0.621050000000     0.592600000000     0.053725   
H135     H      0.309080000000     0.676830000000     0.496390000000     0.051326   
H136     H      0.241260000000     0.662200000000     0.489810000000     0.0202159  
H137     H      0.336560000000     0.628250000000     0.501450000000     0.0374968  
H138     H      0.391590000000     0.617860000000     0.513200000000     0.0380067  
H139     H      0.408590000000     0.665510000000     0.610220000000     0.036764   
H140     H      0.354410000000     0.676930000000     0.597970000000     0.0379049  
H141     H      0.401630000000     0.572140000000     0.548800000000     0.0533052  
H142     H      0.452140000000     0.555750000000     0.560160000000     0.0300201  
H143     H      0.523030000000     0.663770000000     0.609950000000     0.0212203  
H144     H      0.473460000000     0.681370000000     0.598360000000     0.0524802  
H145     H      0.997330000000     0.538060000000     0.932960000000     0.029147   
H146     H      0.999880000000     0.545110000000     0.873750000000     0.0527922  
H147     H      0.123830000000     0.590220000000     0.882450000000     0.0524895  
H148     H      0.120160000000     0.582220000000     0.942150000000     0.0222421  
H149     H      0.024770000000     0.590530000000     0.826610000000     0.0371024  
H150     H      0.022760000000     0.584860000000     0.766870000000     0.0370483  
H151     H      0.096700000000     0.534350000000     0.778980000000     0.0370858  
H152     H      0.098780000000     0.540070000000     0.838620000000     0.0369337  
H153     H      0.999080000000     0.535880000000     0.721780000000     0.0523892  
H154     H      0.004420000000     0.543480000000     0.662080000000     0.0224557  
H155     H      0.127150000000     0.587840000000     0.674160000000     0.0287171  
H156     H      0.122950000000     0.581160000000     0.733180000000     0.0527707  
H157     H      0.059450000000     0.490910000000     0.172720000000     0.027936   
H158     H      0.074480000000     0.502140000000     0.231270000000     0.0532837  
H159     H      0.033370000000     0.584070000000     0.225270000000     0.0529449  
H160     H      0.019260000000     0.572700000000     0.166610000000     0.0217471  
H161     H      0.038200000000     0.488170000000     0.281530000000     0.0372057  
H162     H      0.048730000000     0.497640000000     0.341030000000     0.0374093  
H163     H      0.098990000000     0.621980000000     0.325110000000     0.0370099  
H164     H      0.088520000000     0.612550000000     0.265720000000     0.0372071  
H165     H      0.101750000000     0.526870000000     0.384290000000     0.0527863  
H166     H      0.112820000000     0.539460000000     0.443070000000     0.0219923  
H167     H      0.070360000000     0.619270000000     0.431120000000     0.0284996  
H168     H      0.058470000000     0.606900000000     0.372690000000     0.0534186  
H169     H      0.653910000000     0.152430000000     0.078900000000     0.0304794  
H170     H      0.699800000000     0.220760000000     0.069220000000     0.0531522  
H171     H      0.644340000000     0.214500000000     0.973180000000     0.0518211  
H172     H      0.597610000000     0.145510000000     0.984040000000     0.0220767  
H173     H      0.722130000000     0.252300000000     0.967470000000     0.0374694  
H174     H      0.784390000000     0.313950000000     0.965260000000     0.0376606  
H175     H      0.762170000000     0.347490000000     0.057060000000     0.0359578  
H176     H      0.700340000000     0.286010000000     0.059400000000     0.037586   
H177     H      0.826740000000     0.394900000000     0.968650000000     0.0529712  
H178     H      0.897060000000     0.440090000000     0.978020000000     0.0251821  
H179     H      0.893490000000     0.385510000000     0.072280000000     0.0214433  
H180     H      0.824840000000     0.341950000000     0.064200000000     0.0529647  
H181     H      0.412650000000     0.929950000000     0.148960000000     0.0222556  
H182     H      0.348170000000     0.873250000000     0.158040000000     0.0529482  
H183     H      0.353520000000     0.824540000000     0.067610000000     0.054061   
H184     H      0.417870000000     0.880390000000     0.059680000000     0.0305344  
H185     H      0.327180000000     0.786560000000     0.160050000000     0.0380736  
H186     H      0.265360000000     0.724270000000     0.163460000000     0.0372706  
H187     H      0.216940000000     0.761290000000     0.080980000000     0.035802   
H188     H      0.278820000000     0.822870000000     0.077290000000     0.0382356  
H189     H      0.161140000000     0.722410000000     0.120230000000     0.0506814  
H190     H      0.102530000000     0.660040000000     0.110420000000     0.0227698  
H191     H      0.169680000000     0.603330000000     0.113390000000     0.0239446  
H192     H      0.229020000000     0.665520000000     0.123970000000     0.0523694  
H193     H      0.930630000000     0.555040000000     0.055540000000     0.0159957  
H194     H      0.867840000000     0.547750000000     0.043920000000     0.0536834  
H195     H      0.814280000000     0.430660000000     0.084910000000     0.0516756  
H196     H      0.879820000000     0.439930000000     0.097860000000     0.0182674  
H197     H      0.818050000000     0.507950000000     0.001190000000     0.0388356  
H198     H      0.762930000000     0.516720000000     0.985110000000     0.0378413  
H199     H      0.712040000000     0.466160000000     0.078210000000     0.0376495  
H200     H      0.768500000000     0.458960000000     0.095240000000     0.0368592  
H201     H      0.742760000000     0.564710000000     0.017290000000     0.0526537  
H202     H      0.691140000000     0.580780000000     0.009050000000     0.0283661  
H203     H      0.605410000000     0.459270000000     0.015050000000     0.0220016  
H204     H      0.655980000000     0.442770000000     0.024680000000     0.0525447  
H205     H      0.105930000000     0.464290000000     0.971810000000     0.0192827  
H206     H      0.155480000000     0.444960000000     0.970380000000     0.0514575  
H207     H      0.183280000000     0.471030000000     0.073880000000     0.0536514  
H208     H      0.135040000000     0.489520000000     0.074310000000     0.0335498  
H209     H      0.196470000000     0.419060000000     0.068350000000     0.0359115  
H210     H      0.261930000000     0.431680000000     0.079080000000     0.0351336  
H211     H      0.294500000000     0.492860000000     0.984930000000     0.0364728  
H212     H      0.229380000000     0.483530000000     0.976150000000     0.0369781  
H213     H      0.315900000000     0.429290000000     0.075370000000     0.0499314  
H214     H      0.382730000000     0.455470000000     0.094410000000     0.0190273  
H215     H      0.417170000000     0.556000000000     0.031470000000     0.0255856  
H216     H      0.350020000000     0.532820000000     0.014160000000     0.0523772  
H217     H      0.717260000000     0.768590000000     0.538770000000     0.0209613  
H218     H      0.761170000000     0.832420000000     0.561510000000     0.052065   
H219     H      0.746630000000     0.779700000000     0.658970000000     0.0516138  
H220     H      0.704520000000     0.716350000000     0.635200000000     0.0228247  
H221     H      0.811680000000     0.828650000000     0.663370000000     0.0366523  
H222     H      0.865080000000     0.892430000000     0.679180000000     0.0368732  
H223     H      0.821520000000     0.947300000000     0.608310000000     0.03814    
H224     H      0.766510000000     0.883390000000     0.593510000000     0.0361271  
H225     H      0.915420000000     0.927600000000     0.636970000000     0.0535596  
H226     H      0.976210000000     0.983540000000     0.623010000000     0.0306907  
H227     H      0.931960000000     0.059410000000     0.637610000000     0.025931   
H228     H      0.868520000000     0.002520000000     0.650830000000     0.0522104  
H229     H      0.187800000000     0.233920000000     0.490920000000     0.0234025  
H230     H      0.247450000000     0.290230000000     0.471600000000     0.0522059  
H231     H      0.300360000000     0.302050000000     0.569580000000     0.0529432  
H232     H      0.241140000000     0.246140000000     0.587850000000     0.0211605  
H233     H      0.292420000000     0.362470000000     0.477390000000     0.0373451  
H234     H      0.355320000000     0.418530000000     0.462990000000     0.0368581  
H235     H      0.414300000000     0.368140000000     0.521060000000     0.0370033  
H236     H      0.351960000000     0.312030000000     0.534350000000     0.0369641  
H237     H      0.460760000000     0.404750000000     0.480050000000     0.0520261  
H238     H      0.524500000000     0.463060000000     0.486430000000     0.0237317  
H239     H      0.471300000000     0.531900000000     0.496560000000     0.0317512  
H240     H      0.407280000000     0.474320000000     0.491150000000     0.0532919  
H241     H      0.953160000000     0.097170000000     0.514720000000     0.0253636  
H242     H      0.903150000000     0.115120000000     0.516120000000     0.0531566  
H243     H      0.982970000000     0.215830000000     0.573270000000     0.0518454  
H244     H      0.032190000000     0.197550000000     0.570970000000     0.0312533  
H245     H      0.882240000000     0.167060000000     0.503650000000     0.0374546  
H246     H      0.825070000000     0.169830000000     0.518630000000     0.0382131  
H247     H      0.864070000000     0.179770000000     0.621180000000     0.0374132  
H248     H      0.921350000000     0.177680000000     0.606260000000     0.038208   
H249     H      0.805530000000     0.216600000000     0.547870000000     0.0548181  
H250     H      0.739290000000     0.201050000000     0.557030000000     0.0305313  
H251     H      0.724540000000     0.108410000000     0.623700000000     0.021744   
H252     H      0.790830000000     0.124160000000     0.616170000000     0.0537717  
H253     H      0.202340000000     0.098620000000     0.526040000000     0.0192296  
H254     H      0.254430000000     0.084900000000     0.524230000000     0.052911   
H255     H      0.267530000000     0.088540000000     0.630400000000     0.0528438  
H256     H      0.214000000000     0.101840000000     0.631480000000     0.0219027  
H257     H      0.273230000000     0.034280000000     0.541060000000     0.0368845  
H258     H      0.333850000000     0.037180000000     0.528950000000     0.037182   
H259     H      0.397510000000     0.133340000000     0.595520000000     0.035916   
H260     H      0.336870000000     0.130700000000     0.607300000000     0.0369554  
H261     H      0.388530000000     0.028830000000     0.552980000000     0.0515613  
H262     H      0.450400000000     0.037590000000     0.537530000000     0.020196   
H263     H      0.497590000000     0.161120000000     0.529430000000     0.0250171  
H264     H      0.436310000000     0.153380000000     0.544810000000     0.0522836  
H265     H      0.038250000000     0.969460000000     0.574070000000     0.0293647  
H266     H      0.038850000000     0.910020000000     0.568470000000     0.0526913  
H267     H      0.138140000000     0.971040000000     0.507690000000     0.051107   
H268     H      0.135350000000     0.030550000000     0.512470000000     0.0205202  
H269     H      0.074470000000     0.881200000000     0.587370000000     0.0374338  
H270     H      0.074610000000     0.820650000000     0.585940000000     0.0369722  
H271     H      0.109510000000     0.845550000000     0.485130000000     0.0365937  
H272     H      0.106730000000     0.905770000000     0.485760000000     0.0363341  
H273     H      0.123010000000     0.803370000000     0.586170000000     0.0524362  
H274     H      0.127650000000     0.745590000000     0.590210000000     0.0223822  
H275     H      0.078080000000     0.714430000000     0.492060000000     0.0250617  
H276     H      0.071680000000     0.772700000000     0.487510000000     0.0518826  
H277     H      0.154260000000     0.256720000000     0.628130000000     0.0248198  
H278     H      0.144090000000     0.311440000000     0.634260000000     0.0539145  
H279     H      0.023380000000     0.230810000000     0.652030000000     0.0532671  
H280     H      0.034590000000     0.176720000000     0.646660000000     0.0351556  
H281     H      0.123320000000     0.342420000000     0.678500000000     0.0375472  
H282     H      0.116210000000     0.399950000000     0.674000000000     0.0367039  
H283     H      0.020150000000     0.341280000000     0.602450000000     0.0371448  
H284     H      0.026310000000     0.283250000000     0.608390000000     0.0361721  
H285     H      0.131390000000     0.449350000000     0.634740000000     0.0519839  
H286     H      0.133550000000     0.508570000000     0.615910000000     0.0276834  
H287     H      0.009490000000     0.448250000000     0.602010000000     0.0229846  
H288     H      0.005960000000     0.387810000000     0.622310000000     0.0520627  
H289     H      0.019850000000     0.032020000000     0.674050000000     0.02871    
H290     H      0.003620000000     0.014250000000     0.730770000000     0.0536056  
H291     H      0.125220000000     0.087040000000     0.760400000000     0.052181   
H292     H      0.139440000000     0.106700000000     0.703440000000     0.0215004  
H293     H      0.001610000000     0.984700000000     0.780110000000     0.0366717  
H294     H      0.983870000000     0.974860000000     0.837080000000     0.036588   
H295     H      0.085700000000     0.086150000000     0.861160000000     0.0381151  
H296     H      0.100520000000     0.098050000000     0.803980000000     0.0374491  
H297     H      0.994430000000     0.959550000000     0.889610000000     0.0514362  
H298     H      0.987170000000     0.950370000000     0.948470000000     0.0231903  
H299     H      0.044490000000     0.073770000000     0.960690000000     0.0286547  
H300     H      0.049260000000     0.084210000000     0.901780000000     0.0535627  
H301     H      0.100970000000     0.154480000000     0.447710000000     0.0227319  
H302     H      0.105770000000     0.146410000000     0.389310000000     0.0522829  
H303     H      0.029450000000     0.022310000000     0.401330000000     0.0534923  
H304     H      0.024730000000     0.031250000000     0.458960000000     0.0257212  
H305     H      0.059700000000     0.121720000000     0.336190000000     0.0381533  
H306     H      0.060000000000     0.107520000000     0.278590000000     0.0379803  
H307     H      0.087660000000     0.018180000000     0.309260000000     0.0365185  
H308     H      0.085660000000     0.031530000000     0.366790000000     0.0371752  
H309     H      0.095940000000     0.110130000000     0.234300000000     0.0536913  
H310     H      0.083290000000     0.091580000000     0.177100000000     0.0295395  
H311     H      0.035480000000     0.971450000000     0.205700000000     0.0233517  
H312     H      0.045930000000     0.988670000000     0.263280000000     0.0521838  
H313     H      0.625020000000     0.646070000000     0.121090000000     0.0214404  
H314     H      0.692370000000     0.697330000000     0.128680000000     0.052347   
H315     H      0.728950000000     0.616780000000     0.104120000000     0.0538304  
H316     H      0.661260000000     0.566170000000     0.096730000000     0.029905   
H317     H      0.759280000000     0.725010000000     0.154790000000     0.0362477  
H318     H      0.818660000000     0.784980000000     0.140470000000     0.0357762  
H319     H      0.820440000000     0.733560000000     0.049830000000     0.0370929  
H320     H      0.761580000000     0.673500000000     0.064460000000     0.0397749  
H321     H      0.830670000000     0.835380000000     0.099330000000     0.0520362  
H322     H      0.884920000000     0.898390000000     0.085290000000     0.0234941  
H323     H      0.943170000000     0.844280000000     0.047030000000     0.0206522  
H324     H      0.889230000000     0.780140000000     0.061590000000     0.0516011  
H325     H      0.378940000000     0.434640000000     0.019880000000     0.0253544  
H326     H      0.313420000000     0.379650000000     0.024230000000     0.0535645  
H327     H      0.359920000000     0.302030000000     0.028320000000     0.0523625  
H328     H      0.424850000000     0.358090000000     0.022440000000     0.0216506  
H329     H      0.288100000000     0.343830000000     0.073910000000     0.0351312  
H330     H      0.231810000000     0.291990000000     0.101140000000     0.0362992  
H331     H      0.236680000000     0.206520000000     0.043220000000     0.0413825  
H332     H      0.292500000000     0.258320000000     0.015280000000     0.0368902  
H333     H      0.161160000000     0.239660000000     0.087890000000     0.0502595  
H334     H      0.102430000000     0.179970000000     0.103280000000     0.0310574  
H335     H      0.166760000000     0.120550000000     0.116970000000     0.0322633  
H336     H      0.225850000000     0.179510000000     0.102100000000     0.0537366  
H337     H      0.907270000000     0.964470000000     0.143610000000     0.0192847  
H338     H      0.848080000000     0.963020000000     0.156040000000     0.0525928  
H339     H      0.892770000000     0.078270000000     0.112810000000     0.0543267  
H340     H      0.952020000000     0.078880000000     0.100370000000     0.0311795  
H341     H      0.794020000000     0.960950000000     0.117120000000     0.0375863  
H342     H      0.731840000000     0.957570000000     0.119710000000     0.03628    
H343     H      0.789260000000     0.069880000000     0.166750000000     0.0367713  
H344     H      0.852020000000     0.073750000000     0.162580000000     0.0379186  
H345     H      0.681290000000     0.950370000000     0.150360000000     0.0516739  
H346     H      0.620480000000     0.948230000000     0.135080000000     0.0216264  
H347     H      0.681450000000     0.072080000000     0.119730000000     0.0245269  
H348     H      0.742770000000     0.075140000000     0.132830000000     0.0520199  
H349     H      0.181120000000     0.070400000000     0.057910000000     0.0299147  
H350     H      0.239220000000     0.066780000000     0.052250000000     0.0527942  
H351     H      0.175160000000     0.972210000000     0.984280000000     0.052575   
H352     H      0.117290000000     0.975670000000     0.991550000000     0.0206551  
H353     H      0.289100000000     0.075580000000     0.018510000000     0.0367023  
H354     H      0.345300000000     0.066520000000     0.025430000000     0.038319   
H355     H      0.269590000000     0.941770000000     0.021250000000     0.0375859  
H356     H      0.212880000000     0.950270000000     0.015830000000     0.0363003  
H357     H      0.346050000000     0.974300000000     0.987120000000     0.0532727  
H358     H      0.406530000000     0.974270000000     0.002320000000     0.0240247  
H359     H      0.410780000000     0.019750000000     0.096830000000     0.0219796  
H360     H      0.351720000000     0.020960000000     0.082060000000     0.0543306  
H361     H      0.999490000000     0.861400000000     0.128170000000     0.0206146  
H362     H      0.008110000000     0.805240000000     0.124090000000     0.0534553  
H363     H      0.120560000000     0.880400000000     0.084250000000     0.0541257  
H364     H      0.110470000000     0.935420000000     0.087350000000     0.0252354  
H365     H      0.018110000000     0.795980000000     0.053030000000     0.0381349  
H366     H      0.021090000000     0.745810000000     0.023720000000     0.0358826  
H367     H      0.113620000000     0.756210000000     0.092330000000     0.0344181  
H368     H      0.112130000000     0.808750000000     0.120030000000     0.0373867  
H369     H      0.004060000000     0.681560000000     0.029540000000     0.0508335  
H370     H      0.001280000000     0.622980000000     0.013070000000     0.0232367  
H371     H      0.124640000000     0.675730000000     0.029460000000     0.0229378  
H372     H      0.129040000000     0.736190000000     0.044610000000     0.050819   
H373     H      0.028410000000     0.402170000000     0.995880000000     0.0201257  
H374     H      0.049430000000     0.357170000000     0.986660000000     0.0528684  
H375     H      0.073180000000     0.351340000000     0.091340000000     0.0521882  
H376     H      0.054520000000     0.400370000000     0.099610000000     0.022981   
H377     H      0.018270000000     0.290160000000     0.995720000000     0.0372321  
H378     H      0.024630000000     0.234650000000     0.984780000000     0.037265   
H379     H      0.120130000000     0.273140000000     0.057660000000     0.0356735  
H380     H      0.115590000000     0.331220000000     0.067160000000     0.0359031  
H381     H      0.008520000000     0.176910000000     0.016620000000     0.0542391  
H382     H      0.006070000000     0.115070000000     0.018820000000     0.0336835  
H383     H      0.130390000000     0.173140000000     0.019640000000     0.0316117  
H384     H      0.134010000000     0.236310000000     0.017030000000     0.0527297  
N1       N      0.588490000000     0.573250000000     0.666950000000    -0.212435   
N2       N      0.523340000000     0.524830000000     0.938830000000    -0.20551    
N3       N      0.614240000000     0.589900000000     0.442220000000    -0.205233   
N4       N      0.535050000000     0.535260000000     0.168010000000    -0.206408   
N5       N      0.591040000000     0.720820000000     0.523340000000    -0.20737    
N6       N      0.627700000000     0.009650000000     0.536130000000    -0.208269   
N7       N      0.549400000000     0.466920000000     0.594320000000    -0.185131   
N8       N      0.577460000000     0.200100000000     0.596970000000    -0.20007    
N9       N      0.576580000000     0.094360000000     0.679590000000    -0.206896   
N10      N      0.558550000000     0.019810000000     0.954800000000    -0.204148   
N11      N      0.546420000000     0.996120000000     0.186210000000    -0.204726   
N12      N      0.566720000000     0.068600000000     0.453120000000    -0.203427   
N13      N      0.574660000000     0.928590000000     0.023060000000    -0.204996   
N14      N      0.574210000000     0.649670000000     0.011900000000    -0.203168   
N15      N      0.540290000000     0.131200000000     0.084390000000    -0.206466   
N16      N      0.531390000000     0.407670000000     0.097410000000    -0.212845   
N17      N      0.000480000000     0.486550000000     0.498910000000    -0.205228   
N18      N      0.710810000000     0.202300000000     0.492990000000    -0.191179   
N19      N      0.226580000000     0.701450000000     0.581340000000    -0.205349   
N20      N      0.504120000000     0.969440000000     0.597460000000    -0.209094   
N21      N      0.007530000000     0.638850000000     0.572770000000    -0.203434   
N22      N      0.725530000000     0.636670000000     0.554470000000    -0.200629   
N23      N      0.224950000000     0.632370000000     0.536490000000    -0.206233   
N24      N      0.491750000000     0.608920000000     0.585180000000    -0.208648   
N25      N      0.058330000000     0.558190000000     0.941640000000    -0.207781   
N26      N      0.066260000000     0.567330000000     0.664000000000    -0.208233   
N27      N      0.037810000000     0.530610000000     0.165500000000    -0.207735   
N28      N      0.093140000000     0.580820000000     0.441240000000    -0.206816   
N29      N      0.622780000000     0.143790000000     0.031970000000    -0.204319   
N30      N      0.900570000000     0.415970000000     0.025610000000    -0.204128   
N31      N      0.420200000000     0.909100000000     0.103930000000    -0.203672   
N32      N      0.131980000000     0.627330000000     0.109890000000    -0.205213   
N33      N      0.909510000000     0.497090000000     0.075870000000    -0.207852   
N34      N      0.644630000000     0.521390000000     0.012230000000    -0.197017   
N35      N      0.117820000000     0.479420000000     0.022790000000    -0.20526    
N36      N      0.404870000000     0.507600000000     0.064290000000    -0.209294   
N37      N      0.707510000000     0.737860000000     0.585270000000    -0.211453   
N38      N      0.957740000000     0.025170000000     0.628190000000    -0.194363   
N39      N      0.210290000000     0.235250000000     0.540580000000    -0.208148   
N40      N      0.502450000000     0.501270000000     0.493640000000    -0.201914   
N41      N      0.995480000000     0.144900000000     0.544170000000    -0.202253   
N42      N      0.726330000000     0.151980000000     0.589230000000    -0.207985   
N43      N      0.204990000000     0.102190000000     0.578880000000    -0.210901   
N44      N      0.478670000000     0.100010000000     0.533030000000    -0.210898   
N45      N      0.086860000000     0.004620000000     0.543770000000    -0.20141    
N46      N      0.103170000000     0.725560000000     0.541400000000    -0.204878   
N47      N      0.095120000000     0.212740000000     0.636480000000    -0.205691   
N48      N      0.071770000000     0.482500000000     0.606510000000    -0.204495   
N49      N      0.080530000000     0.071780000000     0.684620000000    -0.206838   
N50      N      0.016710000000     0.011430000000     0.958990000000    -0.201326   
N51      N      0.063110000000     0.093440000000     0.457680000000    -0.20841    
N52      N      0.057460000000     0.030050000000     0.187190000000    -0.20767    
N53      N      0.638480000000     0.603350000000     0.106230000000    -0.202977   
N54      N      0.918460000000     0.875900000000     0.066070000000    -0.214144   
N55      N      0.406190000000     0.399930000000     0.023270000000    -0.213162   
N56      N      0.130220000000     0.145670000000     0.108940000000    -0.183317   
N57      N      0.933750000000     0.021530000000     0.120540000000    -0.209142   
N58      N      0.646760000000     0.009700000000     0.124840000000    -0.206165   
N59      N      0.144810000000     0.022740000000     0.025810000000    -0.208678   
N60      N      0.413700000000     0.998220000000     0.050190000000    -0.206559   
N61      N      0.053340000000     0.901580000000     0.106160000000    -0.212289   
N62      N      0.062400000000     0.644460000000     0.022160000000    -0.208115   
N63      N      0.038650000000     0.403620000000     0.048680000000    -0.206532   
N64      N      0.068050000000     0.139760000000     0.020630000000    -0.183656   
O1       O      0.034960000000     0.077950000000     0.043400000000    -0.412747   
O2       O      0.981500000000     0.916210000000     0.051400000000    -0.457858   
O3       O      0.046000000000     0.034980000000     0.009550000000    -0.379671   
O4       O      0.969060000000     0.991140000000     0.119030000000    -0.471472   
O5       O      0.003750000000     0.972850000000     0.005690000000    -0.451835   
O6       O      0.991350000000     0.047960000000     0.094780000000    -0.400837   
O7       O      0.954100000000     0.939830000000     0.078410000000    -0.478488   
O8       O      0.097070000000     0.103140000000     0.034590000000    -0.361723   
O9       O      0.047170000000     0.044530000000     0.133840000000    -0.401205   
O10      O      0.078880000000     0.994850000000     0.020950000000    -0.461648   
O11      O      0.099270000000     0.081120000000     0.095660000000    -0.410652   
O12      O      0.013250000000     0.927100000000     0.108680000000    -0.4541     
O13      O      0.058470000000     0.950760000000     0.072890000000    -0.479696   
O14      O      0.063450000000     0.108040000000     0.101100000000    -0.359428   
O15      O      0.029870000000     0.984650000000     0.146550000000    -0.46937    
O16      O      0.110890000000     0.045510000000     0.051180000000    -0.399322   
O17      O      0.029670000000     0.001960000000     0.074100000000    -0.522888   
O18      O      0.085670000000     0.128510000000     0.505180000000    -0.450879   
O19      O      0.072110000000     0.147470000000     0.632010000000    -0.41919    
O20      O      0.010430000000     0.096030000000     0.542250000000    -0.429103   
O21      O      0.179440000000     0.187030000000     0.579270000000    -0.458808   
O22      O      0.045100000000     0.143960000000     0.573980000000    -0.440876   
O23      O      0.149790000000     0.181240000000     0.531320000000    -0.444339   
O24      O      0.130330000000     0.187690000000     0.616700000000    -0.457646   
O25      O      0.046190000000     0.067850000000     0.509430000000    -0.426642   
O26      O      0.168870000000     0.125340000000     0.551840000000    -0.471012   
O27      O      0.003590000000     0.090070000000     0.619210000000    -0.393524   
O28      O      0.059840000000     0.036980000000     0.564920000000    -0.4235     
O29      O      0.118890000000     0.119080000000     0.647680000000    -0.456253   
O30      O      0.061830000000     0.073900000000     0.630460000000    -0.417407   
O31      O      0.105580000000     0.068660000000     0.529410000000    -0.422099   
O32      O      0.163380000000     0.115090000000     0.604940000000    -0.460277   
O33      O      0.006520000000     0.045220000000     0.592860000000    -0.448497   
O34      O      0.096270000000     0.119190000000     0.574850000000    -0.54257    
O35      O      0.960820000000     0.467540000000     0.011760000000    -0.419819   
O36      O      0.025360000000     0.578790000000     0.027230000000    -0.44354    
O37      O      0.956300000000     0.481220000000     0.095020000000    -0.417184   
O38      O      0.084460000000     0.554360000000     0.992910000000    -0.437187   
O39      O      0.969170000000     0.524650000000     0.055950000000    -0.475141   
O40      O      0.021790000000     0.525840000000     0.985210000000    -0.449727   
O41      O      0.087400000000     0.604260000000     0.032190000000    -0.440678   
O42      O      0.956600000000     0.433100000000     0.056360000000    -0.44581    
O43      O      0.067300000000     0.488390000000     0.001630000000    -0.419834   
O44      O      0.012380000000     0.539460000000     0.115740000000    -0.450569   
O45      O      0.030710000000     0.446930000000     0.078760000000    -0.423674   
O46      O      0.103490000000     0.566890000000     0.086890000000    -0.435069   
O47      O      0.069590000000     0.595210000000     0.087840000000    -0.451256   
O48      O      0.006790000000     0.434370000000     0.028190000000    -0.457846   
O49      O      0.098500000000     0.516080000000     0.047460000000    -0.462033   
O50      O      0.033050000000     0.498080000000     0.119190000000    -0.451563   
O51      O      0.030690000000     0.515650000000     0.052160000000    -0.529024   
O52      O      0.061970000000     0.518860000000     0.523520000000    -0.443411   
O53      O      0.121230000000     0.686900000000     0.571560000000    -0.454364   
O54      O      0.028580000000     0.600920000000     0.552300000000    -0.447362   
O55      O      0.096510000000     0.615610000000     0.485450000000    -0.448699   
O56      O      0.059350000000     0.633740000000     0.596470000000    -0.42395    
O57      O      0.117470000000     0.574470000000     0.492530000000    -0.443638   
O58      O      0.098660000000     0.669880000000     0.521330000000    -0.427533   
O59      O      0.029050000000     0.548300000000     0.518790000000    -0.439848   
O60      O      0.162940000000     0.596120000000     0.552460000000    -0.465125   
O61      O      0.103910000000     0.597580000000     0.620560000000    -0.456012   
O62      O      0.044690000000     0.516050000000     0.578950000000    -0.427483   
O63      O      0.172700000000     0.684770000000     0.547240000000    -0.44236    
O64      O      0.164960000000     0.653110000000     0.594160000000    -0.434627   
O65      O      0.107490000000     0.542740000000     0.583000000000    -0.445432   
O66      O      0.172690000000     0.634620000000     0.510170000000    -0.423308   
O67      O      0.041560000000     0.568430000000     0.611390000000    -0.437049   
O68      O      0.098570000000     0.602860000000     0.553230000000    -0.528042   
O69      O      0.469010000000     0.021280000000     0.083300000000    -0.453564   
O70      O      0.596220000000     0.988800000000     0.044850000000    -0.439131   
O71      O      0.523890000000     0.003670000000     0.001220000000    -0.436574   
O72      O      0.477710000000     0.937740000000     0.078190000000    -0.442026   
O73      O      0.586970000000     0.036990000000     0.006920000000    -0.43554    
O74      O      0.472930000000     0.969080000000     0.118220000000    -0.42998    
O75      O      0.534570000000     0.946340000000     0.044810000000    -0.434721   
O76      O      0.467900000000     0.996950000000     0.036290000000    -0.43468    
O77      O      0.552330000000     0.026720000000     0.136460000000    -0.449701   
O78      O      0.606090000000     0.087240000000     0.061070000000    -0.443076   
O79      O      0.516140000000     0.076370000000     0.053380000000    -0.439571   
O80      O      0.584570000000     0.974520000000     0.102280000000    -0.437529   
O81      O      0.614280000000     0.037770000000     0.098950000000    -0.440348   
O82      O      0.545060000000     0.077920000000     0.101180000000    -0.442496   
O83      O      0.527950000000     0.964380000000     0.136310000000    -0.423892   
O84      O      0.569680000000     0.084120000000     0.017910000000    -0.428447   
O85      O      0.539900000000     0.013910000000     0.069710000000    -0.526019   
O86      O      0.521790000000     0.078480000000     0.534930000000    -0.453788   
O87      O      0.650470000000     0.075490000000     0.540440000000    -0.408749   
O88      O      0.581140000000     0.118810000000     0.487880000000    -0.428983   
O89      O      0.558440000000     0.026700000000     0.614050000000    -0.446419   
O90      O      0.598960000000     0.077590000000     0.503180000000    -0.445107   
O91      O      0.521830000000     0.028690000000     0.573390000000    -0.461326   
O92      O      0.608080000000     0.034890000000     0.574230000000    -0.484856   
O93      O      0.544040000000     0.138420000000     0.527960000000    -0.412052   
O94      O      0.548910000000     0.080570000000     0.626900000000    -0.444695   
O95      O      0.671920000000     0.136130000000     0.502770000000    -0.405332   
O96      O      0.609570000000     0.178840000000     0.566650000000    -0.406269   
O97      O      0.664520000000     0.103620000000     0.599830000000    -0.45939    
O98      O      0.671610000000     0.149690000000     0.565930000000    -0.427957   
O99      O      0.553630000000     0.135370000000     0.587290000000    -0.434101   
O100     O      0.611150000000     0.103470000000     0.634300000000    -0.464563   
O101     O      0.651610000000     0.175080000000     0.516620000000    -0.441374   
O102     O      0.592720000000     0.097700000000     0.564050000000    -0.553811   
O103     O      0.472840000000     0.430480000000     0.028530000000    -0.43813    
O104     O      0.531060000000     0.587680000000     0.028260000000    -0.445856   
O105     O      0.452340000000     0.502440000000     0.094950000000    -0.463196   
O106     O      0.553000000000     0.546510000000     0.989570000000    -0.435948   
O107     O      0.470240000000     0.547480000000     0.057820000000    -0.447174   
O108     O      0.510460000000     0.485340000000     0.984900000000    -0.451571   
O109     O      0.590750000000     0.603660000000     0.030300000000    -0.389322   
O110     O      0.442650000000     0.454190000000     0.052160000000    -0.485532   
O111     O      0.581010000000     0.502930000000     0.018090000000    -0.517817   
O112     O      0.515130000000     0.551670000000     0.118240000000    -0.432161   
O113     O      0.491800000000     0.434120000000     0.088960000000    -0.456456   
O114     O      0.596930000000     0.550570000000     0.075740000000    -0.441384   
O115     O      0.577720000000     0.590860000000     0.087530000000    -0.436455   
O116     O      0.545440000000     0.460070000000     0.064510000000    -0.46873    
O117     O      0.622830000000     0.564870000000     0.015950000000    -0.395928   
O118     O      0.513660000000     0.496110000000     0.123150000000    -0.470815   
O119     O      0.520720000000     0.516780000000     0.053740000000    -0.538344   
O120     O      0.565010000000     0.525950000000     0.514860000000    -0.440526   
O121     O      0.603970000000     0.685390000000     0.562760000000    -0.458949   
O122     O      0.519890000000     0.574090000000     0.571540000000    -0.433884   
O123     O      0.603810000000     0.614730000000     0.487090000000    -0.460098   
O124     O      0.555660000000     0.628700000000     0.597900000000    -0.468609   
O125     O      0.633420000000     0.582570000000     0.495800000000    -0.408282   
O126     O      0.595130000000     0.667360000000     0.511480000000    -0.443779   
O127     O      0.537870000000     0.558550000000     0.520580000000    -0.425203   
O128     O      0.660780000000     0.593760000000     0.561110000000    -0.421236   
O129     O      0.615800000000     0.619790000000     0.626730000000    -0.479058   
O130     O      0.526290000000     0.507460000000     0.572700000000    -0.39123    
O131     O      0.667270000000     0.698980000000     0.543290000000    -0.455748   
O132     O      0.663820000000     0.673020000000     0.591260000000    -0.467212   
O133     O      0.590480000000     0.530720000000     0.578760000000    -0.4428     
O134     O      0.677110000000     0.642590000000     0.525120000000    -0.425255   
O135     O      0.568710000000     0.563620000000     0.612410000000    -0.435892   
O136     O      0.601450000000     0.611610000000     0.554240000000    -0.563552   


