data_structure

_audit_creation_method RASPA-1.0
_audit_creation_date 2023-5-19
_audit_author_name 'Poobodin Mano'

_cell_length_a    30.1416
_cell_length_b    30.2153
_cell_length_c    29.7703
_cell_angle_alpha 90
_cell_angle_beta  90
_cell_angle_gamma 90
_cell_volume      27112.9

_symmetry_cell_setting          triclinic
_symmetry_space_group_name_Hall 'P 1'
_symmetry_space_group_name_H-M  'P 1'
_symmetry_Int_Tables_number     1

_symmetry_equiv_pos_as_xyz 'x,y,z'

loop_
_atom_site_label
_atom_site_type_symbol
_atom_site_fract_x
_atom_site_fract_y
_atom_site_fract_z
_atom_site_charge
C1       C      0.439050000000     0.439930000000     0.085000000000     0.399045   
C2       C      0.097710000000     0.095320000000     0.083600000000     0.409162   
C3       C      0.095940000000     0.438150000000     0.083510000000     0.39867    
C4       C      0.439860000000     0.097410000000     0.083790000000     0.397361   
C5       C      0.440640000000     0.094540000000     0.462350000000     0.403907   
C6       C      0.092490000000     0.440010000000     0.461270000000     0.391635   
C7       C      0.440090000000     0.441330000000     0.462700000000     0.392424   
C8       C      0.096610000000     0.094130000000     0.462910000000     0.403242   
C9       C      0.346030000000     0.348180000000     0.215990000000     0.410461   
C10      C      0.189580000000     0.188450000000     0.214720000000     0.397617   
C11      C      0.347960000000     0.190680000000     0.214760000000     0.409469   
C12      C      0.187750000000     0.345060000000     0.214400000000     0.40927    
C13      C      0.188310000000     0.345370000000     0.334220000000     0.401909   
C14      C      0.345220000000     0.191340000000     0.336360000000     0.391853   
C15      C      0.343120000000     0.345580000000     0.337200000000     0.402296   
C16      C      0.192160000000     0.191180000000     0.337390000000     0.392753   
C17      C      0.127420000000     0.180520000000     0.165860000000     0.0253258  
C18      C      0.183550000000     0.126300000000     0.165970000000    -0.0310812  
C19      C      0.104800000000     0.157140000000     0.132500000000     0.0397546  
C20      C      0.161180000000     0.102800000000     0.132400000000     0.205047   
C21      C      0.129060000000     0.182200000000     0.384860000000     0.0248117  
C22      C      0.185590000000     0.128440000000     0.385290000000    -0.0320072  
C23      C      0.105040000000     0.157350000000     0.416060000000     0.0367495  
C24      C      0.161580000000     0.103250000000     0.416360000000     0.20278    
C25      C      0.158140000000     0.430180000000     0.132210000000     0.0277945  
C26      C      0.102020000000     0.375920000000     0.132040000000    -0.0308128  
C27      C      0.180750000000     0.406790000000     0.165500000000     0.0392722  
C28      C      0.124370000000     0.352410000000     0.165570000000     0.20474    
C29      C      0.377890000000     0.105390000000     0.132790000000     0.0252853  
C30      C      0.433720000000     0.159910000000     0.132160000000    -0.0312739  
C31      C      0.355250000000     0.128810000000     0.166050000000     0.0381362  
C32      C      0.411330000000     0.183450000000     0.165720000000     0.204257   
C33      C      0.431730000000     0.378840000000     0.414500000000     0.0251591  
C34      C      0.375640000000     0.432990000000     0.417190000000    -0.0303551  
C35      C      0.406900000000     0.354730000000     0.383340000000     0.0372145  
C36      C      0.350390000000     0.408760000000     0.386320000000     0.20413    
C37      C      0.408340000000     0.182580000000     0.384010000000     0.0245498  
C38      C      0.352790000000     0.127820000000     0.383030000000    -0.0313547  
C39      C      0.432310000000     0.157800000000     0.415400000000     0.0369993  
C40      C      0.376440000000     0.102970000000     0.414650000000     0.204382   
C41      C      0.101730000000     0.375990000000     0.415090000000     0.0247814  
C42      C      0.153120000000     0.434450000000     0.410590000000    -0.0333311  
C43      C      0.126200000000     0.352270000000     0.383230000000     0.0361843  
C44      C      0.176920000000     0.411590000000     0.377730000000     0.200628   
C45      C      0.431610000000     0.378200000000     0.134220000000     0.0276562  
C46      C      0.377090000000     0.434050000000     0.134080000000    -0.0306352  
C47      C      0.408270000000     0.355600000000     0.167580000000     0.0378994  
C48      C      0.353640000000     0.411730000000     0.167650000000     0.205582   
C49      C      0.439050000000     0.439930000000     0.585000000000     0.399097   
C50      C      0.097710000000     0.095320000000     0.583600000000     0.409215   
C51      C      0.095940000000     0.438150000000     0.583510000000     0.398721   
C52      C      0.439860000000     0.097410000000     0.583790000000     0.397411   
C53      C      0.440640000000     0.094540000000     0.962350000000     0.403866   
C54      C      0.092490000000     0.440010000000     0.961270000000     0.391583   
C55      C      0.440090000000     0.441330000000     0.962700000000     0.392385   
C56      C      0.096610000000     0.094130000000     0.962920000000     0.40325    
C57      C      0.346030000000     0.348180000000     0.715990000000     0.410481   
C58      C      0.189580000000     0.188450000000     0.714720000000     0.397623   
C59      C      0.347960000000     0.190680000000     0.714760000000     0.409475   
C60      C      0.187750000000     0.345060000000     0.714400000000     0.409293   
C61      C      0.188310000000     0.345370000000     0.834220000000     0.401902   
C62      C      0.345220000000     0.191340000000     0.836360000000     0.391862   
C63      C      0.343120000000     0.345580000000     0.837200000000     0.402289   
C64      C      0.192160000000     0.191180000000     0.837390000000     0.392763   
C65      C      0.127420000000     0.180520000000     0.665850000000     0.0253176  
C66      C      0.183550000000     0.126300000000     0.665970000000    -0.0310572  
C67      C      0.104800000000     0.157140000000     0.632500000000     0.0397826  
C68      C      0.161180000000     0.102800000000     0.632390000000     0.205114   
C69      C      0.129060000000     0.182200000000     0.884850000000     0.0248478  
C70      C      0.185590000000     0.128440000000     0.885290000000    -0.0319858  
C71      C      0.105040000000     0.157350000000     0.916050000000     0.0367408  
C72      C      0.161580000000     0.103250000000     0.916360000000     0.202785   
C73      C      0.158140000000     0.430180000000     0.632210000000     0.0278109  
C74      C      0.102020000000     0.375920000000     0.632050000000    -0.0308467  
C75      C      0.180750000000     0.406790000000     0.665500000000     0.0392869  
C76      C      0.124370000000     0.352410000000     0.665570000000     0.204795   
C77      C      0.377890000000     0.105390000000     0.632790000000     0.0253038  
C78      C      0.433720000000     0.159910000000     0.632160000000    -0.0312545  
C79      C      0.355250000000     0.128810000000     0.666050000000     0.0381457  
C80      C      0.411330000000     0.183450000000     0.665720000000     0.204265   
C81      C      0.431730000000     0.378840000000     0.914500000000     0.0251802  
C82      C      0.375640000000     0.432990000000     0.917200000000    -0.030295   
C83      C      0.406900000000     0.354730000000     0.883340000000     0.0372275  
C84      C      0.350390000000     0.408760000000     0.886320000000     0.204124   
C85      C      0.408340000000     0.182580000000     0.884010000000     0.0245665  
C86      C      0.352790000000     0.127820000000     0.883030000000    -0.0313444  
C87      C      0.432310000000     0.157800000000     0.915390000000     0.0370027  
C88      C      0.376440000000     0.102970000000     0.914650000000     0.204404   
C89      C      0.101730000000     0.375990000000     0.915090000000     0.0248025  
C90      C      0.153120000000     0.434450000000     0.910590000000    -0.033287   
C91      C      0.126200000000     0.352270000000     0.883230000000     0.0362017  
C92      C      0.176920000000     0.411590000000     0.877720000000     0.200646   
C93      C      0.431610000000     0.378200000000     0.634230000000     0.0276577  
C94      C      0.377090000000     0.434050000000     0.634070000000    -0.0305746  
C95      C      0.408270000000     0.355600000000     0.667580000000     0.0379103  
C96      C      0.353640000000     0.411730000000     0.667650000000     0.205566   
C97      C      0.439050000000     0.939930000000     0.085000000000     0.398928   
C98      C      0.097710000000     0.595310000000     0.083600000000     0.409064   
C99      C      0.095940000000     0.938150000000     0.083510000000     0.398557   
C100     C      0.439860000000     0.597410000000     0.083790000000     0.397366   
C101     C      0.440640000000     0.594540000000     0.462350000000     0.403912   
C102     C      0.092490000000     0.940010000000     0.461270000000     0.391608   
C103     C      0.440090000000     0.941330000000     0.462700000000     0.392398   
C104     C      0.096610000000     0.594130000000     0.462910000000     0.403247   
C105     C      0.346030000000     0.848180000000     0.215990000000     0.410464   
C106     C      0.189580000000     0.688450000000     0.214720000000     0.397752   
C107     C      0.347960000000     0.690680000000     0.214760000000     0.409558   
C108     C      0.187750000000     0.845060000000     0.214400000000     0.409135   
C109     C      0.188310000000     0.845370000000     0.334220000000     0.401906   
C110     C      0.345220000000     0.691340000000     0.336360000000     0.391856   
C111     C      0.343120000000     0.845580000000     0.337200000000     0.4023     
C112     C      0.192160000000     0.691180000000     0.337390000000     0.392756   
C113     C      0.127420000000     0.680520000000     0.165860000000     0.0253368  
C114     C      0.183550000000     0.626300000000     0.165970000000    -0.0310861  
C115     C      0.104800000000     0.657140000000     0.132500000000     0.0397523  
C116     C      0.161180000000     0.602800000000     0.132400000000     0.205041   
C117     C      0.129060000000     0.682200000000     0.384860000000     0.0248135  
C118     C      0.185590000000     0.628440000000     0.385290000000    -0.0320037  
C119     C      0.105040000000     0.657350000000     0.416060000000     0.0367526  
C120     C      0.161580000000     0.603250000000     0.416360000000     0.202787   
C121     C      0.158140000000     0.930180000000     0.132210000000     0.0278321  
C122     C      0.102020000000     0.875920000000     0.132040000000    -0.0308211  
C123     C      0.180750000000     0.906790000000     0.165500000000     0.0392616  
C124     C      0.124370000000     0.852410000000     0.165570000000     0.204738   
C125     C      0.377890000000     0.605390000000     0.132790000000     0.0252894  
C126     C      0.433720000000     0.659910000000     0.132160000000    -0.0312729  
C127     C      0.355250000000     0.628810000000     0.166050000000     0.0381446  
C128     C      0.411330000000     0.683450000000     0.165720000000     0.204262   
C129     C      0.431730000000     0.878840000000     0.414500000000     0.0251348  
C130     C      0.375640000000     0.932990000000     0.417190000000    -0.0303526  
C131     C      0.406900000000     0.854740000000     0.383340000000     0.0372581  
C132     C      0.350390000000     0.908760000000     0.386320000000     0.204138   
C133     C      0.408340000000     0.682580000000     0.384010000000     0.0245513  
C134     C      0.352790000000     0.627820000000     0.383030000000    -0.0313496  
C135     C      0.432310000000     0.657800000000     0.415400000000     0.037002   
C136     C      0.376440000000     0.602970000000     0.414650000000     0.204386   
C137     C      0.101730000000     0.875980000000     0.415090000000     0.0247453  
C138     C      0.153120000000     0.934450000000     0.410590000000    -0.0332845  
C139     C      0.126200000000     0.852260000000     0.383230000000     0.0361735  
C140     C      0.176920000000     0.911590000000     0.377730000000     0.200623   
C141     C      0.431610000000     0.878190000000     0.134220000000     0.0275753  
C142     C      0.377090000000     0.934050000000     0.134080000000    -0.0306387  
C143     C      0.408270000000     0.855600000000     0.167580000000     0.0379433  
C144     C      0.353640000000     0.911730000000     0.167650000000     0.205597   
C145     C      0.439050000000     0.939930000000     0.585000000000     0.39898    
C146     C      0.097710000000     0.595310000000     0.583600000000     0.409117   
C147     C      0.095940000000     0.938150000000     0.583510000000     0.398608   
C148     C      0.439860000000     0.597410000000     0.583790000000     0.397416   
C149     C      0.440640000000     0.594540000000     0.962350000000     0.403871   
C150     C      0.092490000000     0.940010000000     0.961270000000     0.391556   
C151     C      0.440090000000     0.941330000000     0.962700000000     0.39236    
C152     C      0.096610000000     0.594130000000     0.962920000000     0.403255   
C153     C      0.346030000000     0.848180000000     0.715990000000     0.410484   
C154     C      0.189580000000     0.688450000000     0.714720000000     0.397758   
C155     C      0.347960000000     0.690680000000     0.714760000000     0.409564   
C156     C      0.187750000000     0.845060000000     0.714400000000     0.409158   
C157     C      0.188310000000     0.845370000000     0.834220000000     0.4019     
C158     C      0.345220000000     0.691340000000     0.836360000000     0.391865   
C159     C      0.343120000000     0.845580000000     0.837200000000     0.402293   
C160     C      0.192160000000     0.691180000000     0.837390000000     0.392766   
C161     C      0.127420000000     0.680520000000     0.665850000000     0.0253286  
C162     C      0.183550000000     0.626300000000     0.665970000000    -0.0310621  
C163     C      0.104800000000     0.657140000000     0.632500000000     0.0397803  
C164     C      0.161180000000     0.602800000000     0.632390000000     0.205108   
C165     C      0.129060000000     0.682200000000     0.884850000000     0.0248496  
C166     C      0.185590000000     0.628440000000     0.885290000000    -0.0319823  
C167     C      0.105040000000     0.657350000000     0.916050000000     0.0367439  
C168     C      0.161580000000     0.603250000000     0.916360000000     0.202792   
C169     C      0.158140000000     0.930180000000     0.632210000000     0.0278484  
C170     C      0.102020000000     0.875920000000     0.632050000000    -0.030855   
C171     C      0.180750000000     0.906790000000     0.665500000000     0.0392763  
C172     C      0.124370000000     0.852410000000     0.665570000000     0.204793   
C173     C      0.377890000000     0.605390000000     0.632790000000     0.0253079  
C174     C      0.433720000000     0.659910000000     0.632160000000    -0.0312535  
C175     C      0.355250000000     0.628810000000     0.666050000000     0.0381541  
C176     C      0.411330000000     0.683450000000     0.665720000000     0.20427    
C177     C      0.431730000000     0.878840000000     0.914500000000     0.0251559  
C178     C      0.375640000000     0.932990000000     0.917200000000    -0.0302925  
C179     C      0.406900000000     0.854740000000     0.883340000000     0.037271   
C180     C      0.350390000000     0.908760000000     0.886320000000     0.204132   
C181     C      0.408340000000     0.682580000000     0.884010000000     0.024568   
C182     C      0.352790000000     0.627820000000     0.883030000000    -0.0313394  
C183     C      0.432310000000     0.657800000000     0.915390000000     0.0370054  
C184     C      0.376440000000     0.602970000000     0.914650000000     0.204408   
C185     C      0.101730000000     0.875980000000     0.915090000000     0.0247665  
C186     C      0.153120000000     0.934450000000     0.910590000000    -0.0332404  
C187     C      0.126200000000     0.852260000000     0.883230000000     0.0361909  
C188     C      0.176920000000     0.911590000000     0.877720000000     0.200641   
C189     C      0.431610000000     0.878190000000     0.634230000000     0.0275768  
C190     C      0.377090000000     0.934050000000     0.634070000000    -0.0305781  
C191     C      0.408270000000     0.855600000000     0.667580000000     0.0379542  
C192     C      0.353640000000     0.911730000000     0.667650000000     0.20558    
C193     C      0.939050000000     0.439930000000     0.085000000000     0.399047   
C194     C      0.597720000000     0.095320000000     0.083600000000     0.40913    
C195     C      0.595940000000     0.438150000000     0.083510000000     0.398683   
C196     C      0.939860000000     0.097410000000     0.083790000000     0.397357   
C197     C      0.940640000000     0.094540000000     0.462350000000     0.403957   
C198     C      0.592490000000     0.440010000000     0.461270000000     0.391645   
C199     C      0.940080000000     0.441330000000     0.462700000000     0.392398   
C200     C      0.596610000000     0.094130000000     0.462910000000     0.403154   
C201     C      0.846030000000     0.348180000000     0.215990000000     0.410464   
C202     C      0.689580000000     0.188450000000     0.214720000000     0.397618   
C203     C      0.847960000000     0.190680000000     0.214760000000     0.40947    
C204     C      0.687750000000     0.345060000000     0.214400000000     0.409308   
C205     C      0.688320000000     0.345370000000     0.334220000000     0.401937   
C206     C      0.845220000000     0.191340000000     0.336360000000     0.391854   
C207     C      0.843120000000     0.345580000000     0.337200000000     0.402249   
C208     C      0.692160000000     0.191180000000     0.337390000000     0.392791   
C209     C      0.627420000000     0.180520000000     0.165860000000     0.0253281  
C210     C      0.683550000000     0.126300000000     0.165970000000    -0.031078   
C211     C      0.604800000000     0.157140000000     0.132500000000     0.0397727  
C212     C      0.661180000000     0.102800000000     0.132400000000     0.205048   
C213     C      0.629060000000     0.182200000000     0.384860000000     0.0247798  
C214     C      0.685590000000     0.128440000000     0.385290000000    -0.0319722  
C215     C      0.605040000000     0.157350000000     0.416060000000     0.0367672  
C216     C      0.661580000000     0.103250000000     0.416360000000     0.202768   
C217     C      0.658140000000     0.430180000000     0.132210000000     0.0277853  
C218     C      0.602020000000     0.375920000000     0.132040000000    -0.0307807  
C219     C      0.680750000000     0.406790000000     0.165500000000     0.0393029  
C220     C      0.624370000000     0.352410000000     0.165570000000     0.204681   
C221     C      0.877890000000     0.105390000000     0.132790000000     0.0252892  
C222     C      0.933720000000     0.159910000000     0.132160000000    -0.0312685  
C223     C      0.855250000000     0.128810000000     0.166050000000     0.0381386  
C224     C      0.911330000000     0.183450000000     0.165720000000     0.204266   
C225     C      0.931730000000     0.378840000000     0.414500000000     0.02516    
C226     C      0.875640000000     0.432990000000     0.417190000000    -0.0303356  
C227     C      0.906900000000     0.354730000000     0.383340000000     0.0372641  
C228     C      0.850390000000     0.408760000000     0.386320000000     0.204094   
C229     C      0.908340000000     0.182580000000     0.384010000000     0.0245674  
C230     C      0.852790000000     0.127820000000     0.383030000000    -0.0313829  
C231     C      0.932310000000     0.157800000000     0.415400000000     0.0369823  
C232     C      0.876440000000     0.102970000000     0.414650000000     0.204454   
C233     C      0.601720000000     0.375990000000     0.415090000000     0.0247485  
C234     C      0.653120000000     0.434450000000     0.410590000000    -0.0333219  
C235     C      0.626200000000     0.352270000000     0.383230000000     0.0362197  
C236     C      0.676930000000     0.411590000000     0.377730000000     0.200666   
C237     C      0.931610000000     0.378200000000     0.134220000000     0.0276607  
C238     C      0.877080000000     0.434050000000     0.134080000000    -0.0307134  
C239     C      0.908270000000     0.355600000000     0.167580000000     0.0379122  
C240     C      0.853640000000     0.411730000000     0.167650000000     0.205627   
C241     C      0.939050000000     0.439930000000     0.585000000000     0.399099   
C242     C      0.597720000000     0.095320000000     0.583600000000     0.409184   
C243     C      0.595940000000     0.438150000000     0.583510000000     0.398734   
C244     C      0.939860000000     0.097410000000     0.583790000000     0.397407   
C245     C      0.940640000000     0.094540000000     0.962350000000     0.403916   
C246     C      0.592490000000     0.440010000000     0.961270000000     0.391593   
C247     C      0.940080000000     0.441330000000     0.962700000000     0.392359   
C248     C      0.596610000000     0.094130000000     0.962920000000     0.403162   
C249     C      0.846030000000     0.348180000000     0.715990000000     0.410485   
C250     C      0.689580000000     0.188450000000     0.714720000000     0.397623   
C251     C      0.847960000000     0.190680000000     0.714760000000     0.409476   
C252     C      0.687750000000     0.345060000000     0.714400000000     0.409331   
C253     C      0.688320000000     0.345370000000     0.834220000000     0.40193    
C254     C      0.845220000000     0.191340000000     0.836360000000     0.391862   
C255     C      0.843120000000     0.345580000000     0.837200000000     0.402242   
C256     C      0.692160000000     0.191180000000     0.837390000000     0.392801   
C257     C      0.627420000000     0.180520000000     0.665850000000     0.02532    
C258     C      0.683550000000     0.126300000000     0.665970000000    -0.031054   
C259     C      0.604800000000     0.157140000000     0.632500000000     0.0398007  
C260     C      0.661180000000     0.102800000000     0.632390000000     0.205116   
C261     C      0.629060000000     0.182200000000     0.884850000000     0.0248158  
C262     C      0.685590000000     0.128440000000     0.885290000000    -0.0319508  
C263     C      0.605040000000     0.157350000000     0.916050000000     0.0367585  
C264     C      0.661580000000     0.103250000000     0.916360000000     0.202773   
C265     C      0.658140000000     0.430180000000     0.632210000000     0.0278016  
C266     C      0.602020000000     0.375920000000     0.632050000000    -0.0308146  
C267     C      0.680750000000     0.406790000000     0.665500000000     0.0393177  
C268     C      0.624370000000     0.352410000000     0.665570000000     0.204736   
C269     C      0.877890000000     0.105390000000     0.632790000000     0.0253078  
C270     C      0.933720000000     0.159910000000     0.632160000000    -0.0312491  
C271     C      0.855250000000     0.128810000000     0.666050000000     0.0381481  
C272     C      0.911330000000     0.183450000000     0.665720000000     0.204274   
C273     C      0.931730000000     0.378840000000     0.914500000000     0.0251811  
C274     C      0.875640000000     0.432990000000     0.917200000000    -0.0302755  
C275     C      0.906900000000     0.354730000000     0.883340000000     0.0372771  
C276     C      0.850390000000     0.408760000000     0.886320000000     0.204088   
C277     C      0.908340000000     0.182580000000     0.884010000000     0.0245841  
C278     C      0.852790000000     0.127820000000     0.883030000000    -0.0313727  
C279     C      0.932310000000     0.157800000000     0.915390000000     0.0369857  
C280     C      0.876440000000     0.102970000000     0.914650000000     0.204475   
C281     C      0.601720000000     0.375990000000     0.915090000000     0.0247696  
C282     C      0.653120000000     0.434450000000     0.910590000000    -0.0332779  
C283     C      0.626200000000     0.352270000000     0.883230000000     0.0362371  
C284     C      0.676930000000     0.411590000000     0.877720000000     0.200685   
C285     C      0.931610000000     0.378200000000     0.634230000000     0.0276621  
C286     C      0.877080000000     0.434050000000     0.634070000000    -0.0306528  
C287     C      0.908270000000     0.355600000000     0.667580000000     0.0379231  
C288     C      0.853640000000     0.411730000000     0.667650000000     0.205611   
C289     C      0.939050000000     0.939930000000     0.085000000000     0.398931   
C290     C      0.597720000000     0.595310000000     0.083600000000     0.409032   
C291     C      0.595940000000     0.938150000000     0.083510000000     0.398571   
C292     C      0.939860000000     0.597410000000     0.083790000000     0.397362   
C293     C      0.940640000000     0.594540000000     0.462350000000     0.403962   
C294     C      0.592490000000     0.940010000000     0.461270000000     0.391618   
C295     C      0.940080000000     0.941330000000     0.462700000000     0.392373   
C296     C      0.596610000000     0.594130000000     0.462910000000     0.403159   
C297     C      0.846030000000     0.848180000000     0.215990000000     0.410467   
C298     C      0.689580000000     0.688450000000     0.214720000000     0.397752   
C299     C      0.847960000000     0.690680000000     0.214760000000     0.409559   
C300     C      0.687750000000     0.845060000000     0.214400000000     0.409173   
C301     C      0.688320000000     0.845370000000     0.334220000000     0.401934   
C302     C      0.845220000000     0.691340000000     0.336360000000     0.391856   
C303     C      0.843120000000     0.845580000000     0.337200000000     0.402252   
C304     C      0.692160000000     0.691180000000     0.337390000000     0.392794   
C305     C      0.627420000000     0.680520000000     0.165860000000     0.0253391  
C306     C      0.683550000000     0.626300000000     0.165970000000    -0.0310829  
C307     C      0.604800000000     0.657140000000     0.132500000000     0.0397704  
C308     C      0.661180000000     0.602800000000     0.132400000000     0.205042   
C309     C      0.629060000000     0.682200000000     0.384860000000     0.0247816  
C310     C      0.685590000000     0.628440000000     0.385290000000    -0.0319687  
C311     C      0.605040000000     0.657350000000     0.416060000000     0.0367702  
C312     C      0.661580000000     0.603250000000     0.416360000000     0.202775   
C313     C      0.658140000000     0.930180000000     0.132210000000     0.0278228  
C314     C      0.602020000000     0.875920000000     0.132040000000    -0.030789   
C315     C      0.680750000000     0.906790000000     0.165500000000     0.0392923  
C316     C      0.624370000000     0.852410000000     0.165570000000     0.204679   
C317     C      0.877890000000     0.605390000000     0.132790000000     0.0252933  
C318     C      0.933720000000     0.659910000000     0.132160000000    -0.0312675  
C319     C      0.855250000000     0.628810000000     0.166050000000     0.038147   
C320     C      0.911330000000     0.683450000000     0.165720000000     0.204271   
C321     C      0.931730000000     0.878840000000     0.414500000000     0.0251356  
C322     C      0.875640000000     0.932990000000     0.417190000000    -0.0303332  
C323     C      0.906900000000     0.854740000000     0.383340000000     0.0373077  
C324     C      0.850390000000     0.908760000000     0.386320000000     0.204102   
C325     C      0.908340000000     0.682580000000     0.384010000000     0.024569   
C326     C      0.852790000000     0.627820000000     0.383030000000    -0.0313779  
C327     C      0.932310000000     0.657800000000     0.415400000000     0.036985   
C328     C      0.876440000000     0.602970000000     0.414650000000     0.204457   
C329     C      0.601720000000     0.875980000000     0.415090000000     0.0247125  
C330     C      0.653120000000     0.934450000000     0.410590000000    -0.0332754  
C331     C      0.626200000000     0.852260000000     0.383230000000     0.0362089  
C332     C      0.676930000000     0.911590000000     0.377730000000     0.200661   
C333     C      0.931610000000     0.878190000000     0.134220000000     0.0275798  
C334     C      0.877080000000     0.934050000000     0.134080000000    -0.0307168  
C335     C      0.908270000000     0.855600000000     0.167580000000     0.037956   
C336     C      0.853640000000     0.911730000000     0.167650000000     0.205642   
C337     C      0.939050000000     0.939930000000     0.585000000000     0.398983   
C338     C      0.597720000000     0.595310000000     0.583600000000     0.409086   
C339     C      0.595940000000     0.938150000000     0.583510000000     0.398622   
C340     C      0.939860000000     0.597410000000     0.583790000000     0.397412   
C341     C      0.940640000000     0.594540000000     0.962350000000     0.403922   
C342     C      0.592490000000     0.940010000000     0.961270000000     0.391565   
C343     C      0.940080000000     0.941330000000     0.962700000000     0.392334   
C344     C      0.596610000000     0.594130000000     0.962920000000     0.403167   
C345     C      0.846030000000     0.848180000000     0.715990000000     0.410488   
C346     C      0.689580000000     0.688450000000     0.714720000000     0.397758   
C347     C      0.847960000000     0.690680000000     0.714760000000     0.409565   
C348     C      0.687750000000     0.845060000000     0.714400000000     0.409196   
C349     C      0.688320000000     0.845370000000     0.834220000000     0.401928   
C350     C      0.845220000000     0.691340000000     0.836360000000     0.391865   
C351     C      0.843120000000     0.845580000000     0.837200000000     0.402245   
C352     C      0.692160000000     0.691180000000     0.837390000000     0.392804   
C353     C      0.627420000000     0.680520000000     0.665850000000     0.025331   
C354     C      0.683550000000     0.626300000000     0.665970000000    -0.0310589  
C355     C      0.604800000000     0.657140000000     0.632500000000     0.0397984  
C356     C      0.661180000000     0.602800000000     0.632390000000     0.205109   
C357     C      0.629060000000     0.682200000000     0.884850000000     0.0248176  
C358     C      0.685590000000     0.628440000000     0.885290000000    -0.0319473  
C359     C      0.605040000000     0.657350000000     0.916050000000     0.0367616  
C360     C      0.661580000000     0.603250000000     0.916360000000     0.20278    
C361     C      0.658140000000     0.930180000000     0.632210000000     0.0278391  
C362     C      0.602020000000     0.875920000000     0.632050000000    -0.0308229  
C363     C      0.680750000000     0.906790000000     0.665500000000     0.039307   
C364     C      0.624370000000     0.852410000000     0.665570000000     0.204734   
C365     C      0.877890000000     0.605390000000     0.632790000000     0.0253119  
C366     C      0.933720000000     0.659910000000     0.632160000000    -0.0312481  
C367     C      0.855250000000     0.628810000000     0.666050000000     0.0381565  
C368     C      0.911330000000     0.683450000000     0.665720000000     0.204279   
C369     C      0.931730000000     0.878840000000     0.914500000000     0.0251568  
C370     C      0.875640000000     0.932990000000     0.917200000000    -0.0302731  
C371     C      0.906900000000     0.854740000000     0.883340000000     0.0373207  
C372     C      0.850390000000     0.908760000000     0.886320000000     0.204096   
C373     C      0.908340000000     0.682580000000     0.884010000000     0.0245856  
C374     C      0.852790000000     0.627820000000     0.883030000000    -0.0313676  
C375     C      0.932310000000     0.657800000000     0.915390000000     0.0369883  
C376     C      0.876440000000     0.602970000000     0.914650000000     0.204479   
C377     C      0.601720000000     0.875980000000     0.915090000000     0.0247336  
C378     C      0.653120000000     0.934450000000     0.910590000000    -0.0332313  
C379     C      0.626200000000     0.852260000000     0.883230000000     0.0362263  
C380     C      0.676930000000     0.911590000000     0.877720000000     0.200679   
C381     C      0.931610000000     0.878190000000     0.634230000000     0.0275813  
C382     C      0.877080000000     0.934050000000     0.634070000000    -0.0306562  
C383     C      0.908270000000     0.855600000000     0.667580000000     0.037967   
C384     C      0.853640000000     0.911730000000     0.667650000000     0.205626   
Co1      Co     0.452130000000     0.018150000000     0.025130000000     0.846289   
Co2      Co     0.083290000000     0.516910000000     0.524310000000     0.848359   
Co3      Co     0.517100000000     0.452030000000     0.024680000000     0.841841   
Co4      Co     0.518420000000     0.083340000000     0.524150000000     0.839799   
Co5      Co     0.266750000000     0.333250000000     0.273900000000     0.850451   
Co6      Co     0.268440000000     0.202350000000     0.273800000000     0.847044   
Co7      Co     0.333440000000     0.268710000000     0.274680000000     0.840777   
Co8      Co     0.201920000000     0.267140000000     0.274290000000     0.841094   
Co9      Co     0.452130000000     0.018150000000     0.525130000000     0.846765   
Co10     Co     0.083290000000     0.516910000000     0.024310000000     0.847883   
Co11     Co     0.517100000000     0.452030000000     0.524680000000     0.842364   
Co12     Co     0.518420000000     0.083340000000     0.024150000000     0.839321   
Co13     Co     0.266750000000     0.333250000000     0.773890000000     0.850482   
Co14     Co     0.268440000000     0.202350000000     0.773800000000     0.847052   
Co15     Co     0.333440000000     0.268710000000     0.774680000000     0.840782   
Co16     Co     0.201920000000     0.267140000000     0.774290000000     0.841099   
Co17     Co     0.452130000000     0.518150000000     0.025130000000     0.846494   
Co18     Co     0.083290000000     0.016910000000     0.524310000000     0.848159   
Co19     Co     0.517100000000     0.952040000000     0.024680000000     0.841815   
Co20     Co     0.518420000000     0.583340000000     0.524150000000     0.839755   
Co21     Co     0.266750000000     0.833250000000     0.273900000000     0.850444   
Co22     Co     0.268440000000     0.702350000000     0.273800000000     0.847099   
Co23     Co     0.333440000000     0.768710000000     0.274680000000     0.840784   
Co24     Co     0.201920000000     0.767140000000     0.274290000000     0.841088   
Co25     Co     0.452130000000     0.518150000000     0.525130000000     0.84697    
Co26     Co     0.083290000000     0.016910000000     0.024310000000     0.847682   
Co27     Co     0.517100000000     0.952040000000     0.524680000000     0.842337   
Co28     Co     0.518420000000     0.583340000000     0.024150000000     0.839277   
Co29     Co     0.266750000000     0.833250000000     0.773890000000     0.850474   
Co30     Co     0.268440000000     0.702350000000     0.773800000000     0.847107   
Co31     Co     0.333440000000     0.768710000000     0.774680000000     0.840789   
Co32     Co     0.201920000000     0.767140000000     0.774290000000     0.841093   
Co33     Co     0.952130000000     0.018150000000     0.025130000000     0.84645    
Co34     Co     0.583290000000     0.516910000000     0.524310000000     0.84826    
Co35     Co     0.017090000000     0.452030000000     0.024680000000     0.841627   
Co36     Co     0.018420000000     0.083340000000     0.524150000000     0.839627   
Co37     Co     0.766750000000     0.333250000000     0.273900000000     0.85046    
Co38     Co     0.768440000000     0.202350000000     0.273800000000     0.847044   
Co39     Co     0.833440000000     0.268710000000     0.274680000000     0.840774   
Co40     Co     0.701920000000     0.267140000000     0.274290000000     0.841091   
Co41     Co     0.952130000000     0.018150000000     0.525130000000     0.846925   
Co42     Co     0.583290000000     0.516910000000     0.024310000000     0.847784   
Co43     Co     0.017090000000     0.452030000000     0.524680000000     0.842149   
Co44     Co     0.018420000000     0.083340000000     0.024150000000     0.83915    
Co45     Co     0.766750000000     0.333250000000     0.773890000000     0.85049    
Co46     Co     0.768440000000     0.202350000000     0.773800000000     0.847052   
Co47     Co     0.833440000000     0.268710000000     0.774680000000     0.840779   
Co48     Co     0.701920000000     0.267140000000     0.774290000000     0.841096   
Co49     Co     0.952130000000     0.518150000000     0.025130000000     0.846655   
Co50     Co     0.583290000000     0.016910000000     0.524310000000     0.848059   
Co51     Co     0.017090000000     0.952040000000     0.024680000000     0.8416     
Co52     Co     0.018420000000     0.583340000000     0.524150000000     0.839583   
Co53     Co     0.766750000000     0.833250000000     0.273900000000     0.850452   
Co54     Co     0.768440000000     0.702350000000     0.273800000000     0.847098   
Co55     Co     0.833440000000     0.768710000000     0.274680000000     0.840782   
Co56     Co     0.701920000000     0.767140000000     0.274290000000     0.841085   
Co57     Co     0.952130000000     0.518150000000     0.525130000000     0.84713    
Co58     Co     0.583290000000     0.016910000000     0.024310000000     0.847583   
Co59     Co     0.017090000000     0.952040000000     0.524680000000     0.842122   
Co60     Co     0.018420000000     0.583340000000     0.024150000000     0.839106   
Co61     Co     0.766750000000     0.833250000000     0.773890000000     0.850483   
Co62     Co     0.768440000000     0.702350000000     0.773800000000     0.847106   
Co63     Co     0.833440000000     0.768710000000     0.774680000000     0.840787   
Co64     Co     0.701920000000     0.767140000000     0.774290000000     0.84109    
H1       H      0.073680000000     0.170880000000     0.120680000000     0.0465386  
H2       H      0.112810000000     0.211110000000     0.177850000000     0.0574968  
H3       H      0.214700000000     0.112860000000     0.178110000000     0.0720252  
H4       H      0.199490000000     0.073140000000     0.091940000000     0.161629   
H5       H      0.073390000000     0.170540000000     0.427060000000     0.044455   
H6       H      0.114710000000     0.213090000000     0.373320000000     0.046821   
H7       H      0.217340000000     0.115650000000     0.374060000000     0.0725911  
H8       H      0.169750000000     0.041900000000     0.408320000000     0.15622    
H9       H      0.211840000000     0.420560000000     0.177350000000     0.0574119  
H10      H      0.172730000000     0.460810000000     0.120260000000     0.0600663  
H11      H      0.070880000000     0.362480000000     0.119880000000     0.0719933  
H12      H      0.086070000000     0.322620000000     0.205920000000     0.157361   
H13      H      0.324260000000     0.114910000000     0.178030000000     0.045977   
H14      H      0.363390000000     0.074640000000     0.121050000000     0.0481746  
H15      H      0.464750000000     0.173430000000     0.119800000000     0.0715584  
H16      H      0.449580000000     0.213660000000     0.205810000000     0.157749   
H17      H      0.421110000000     0.324090000000     0.370990000000     0.0443421  
H18      H      0.463590000000     0.365520000000     0.424680000000     0.047355   
H19      H      0.361780000000     0.463670000000     0.429880000000     0.0836391  
H20      H      0.288790000000     0.412560000000     0.396970000000     0.169076   
H21      H      0.463610000000     0.171320000000     0.426980000000     0.04423    
H22      H      0.422310000000     0.213810000000     0.372950000000     0.0463129  
H23      H      0.321490000000     0.114520000000     0.371130000000     0.0744949  
H24      H      0.339480000000     0.070700000000     0.454340000000     0.161952   
H25      H      0.114260000000     0.319660000000     0.373980000000     0.0436995  
H26      H      0.072080000000     0.360690000000     0.428690000000     0.0470752  
H27      H      0.165270000000     0.466680000000     0.420530000000     0.0720296  
H28      H      0.200420000000     0.448850000000     0.332460000000     0.159564   
H29      H      0.422130000000     0.324610000000     0.179440000000     0.0548496  
H30      H      0.462330000000     0.363710000000     0.122250000000     0.049324   
H31      H      0.363530000000     0.465090000000     0.121920000000     0.0723048  
H32      H      0.323930000000     0.449870000000     0.208190000000     0.161694   
H33      H      0.073680000000     0.170880000000     0.620690000000     0.0465544  
H34      H      0.112810000000     0.211110000000     0.677850000000     0.0575128  
H35      H      0.214700000000     0.112860000000     0.678110000000     0.0720296  
H36      H      0.199490000000     0.073140000000     0.591950000000     0.161694   
H37      H      0.073390000000     0.170540000000     0.927060000000     0.0444973  
H38      H      0.114710000000     0.213090000000     0.873320000000     0.0468228  
H39      H      0.217340000000     0.115650000000     0.874060000000     0.0725974  
H40      H      0.169750000000     0.041900000000     0.908320000000     0.156214   
H41      H      0.211840000000     0.420560000000     0.677350000000     0.057419   
H42      H      0.172730000000     0.460810000000     0.620260000000     0.060091   
H43      H      0.070880000000     0.362480000000     0.619880000000     0.0720325  
H44      H      0.086070000000     0.322620000000     0.705910000000     0.157425   
H45      H      0.324260000000     0.114910000000     0.678030000000     0.0459841  
H46      H      0.363390000000     0.074640000000     0.621050000000     0.0481989  
H47      H      0.464750000000     0.173430000000     0.619800000000     0.0715831  
H48      H      0.449580000000     0.213660000000     0.705810000000     0.157742   
H49      H      0.421110000000     0.324090000000     0.870980000000     0.0443573  
H50      H      0.463590000000     0.365520000000     0.924690000000     0.0473873  
H51      H      0.361780000000     0.463670000000     0.929890000000     0.0836552  
H52      H      0.288790000000     0.412560000000     0.896970000000     0.16911    
H53      H      0.463610000000     0.171320000000     0.926980000000     0.0442682  
H54      H      0.422310000000     0.213810000000     0.872950000000     0.0463225  
H55      H      0.321490000000     0.114520000000     0.871130000000     0.0745022  
H56      H      0.339480000000     0.070700000000     0.954340000000     0.162025   
H57      H      0.114260000000     0.319660000000     0.873970000000     0.0437152  
H58      H      0.072080000000     0.360690000000     0.928690000000     0.0471087  
H59      H      0.165270000000     0.466680000000     0.920520000000     0.0720371  
H60      H      0.200420000000     0.448850000000     0.832460000000     0.159625   
H61      H      0.422130000000     0.324610000000     0.679440000000     0.0548559  
H62      H      0.462330000000     0.363710000000     0.622250000000     0.0493548  
H63      H      0.363530000000     0.465090000000     0.621920000000     0.0723157  
H64      H      0.323930000000     0.449870000000     0.708190000000     0.161686   
H65      H      0.073680000000     0.670880000000     0.120680000000     0.0465441  
H66      H      0.112810000000     0.711110000000     0.177850000000     0.0574966  
H67      H      0.214700000000     0.612870000000     0.178110000000     0.0720427  
H68      H      0.199490000000     0.573140000000     0.091940000000     0.161637   
H69      H      0.073390000000     0.670540000000     0.427060000000     0.044456   
H70      H      0.114710000000     0.713090000000     0.373320000000     0.0468218  
H71      H      0.217340000000     0.615650000000     0.374060000000     0.0725999  
H72      H      0.169750000000     0.541900000000     0.408320000000     0.156255   
H73      H      0.211840000000     0.920560000000     0.177350000000     0.0574281  
H74      H      0.172730000000     0.960810000000     0.120260000000     0.0600831  
H75      H      0.070880000000     0.862470000000     0.119880000000     0.0719941  
H76      H      0.086070000000     0.822620000000     0.205920000000     0.157363   
H77      H      0.324260000000     0.614910000000     0.178030000000     0.0459815  
H78      H      0.363390000000     0.574640000000     0.121050000000     0.0481961  
H79      H      0.464750000000     0.673430000000     0.119800000000     0.0715592  
H80      H      0.449580000000     0.713660000000     0.205810000000     0.157752   
H81      H      0.421110000000     0.824090000000     0.370990000000     0.0443345  
H82      H      0.463590000000     0.865520000000     0.424680000000     0.0473644  
H83      H      0.361780000000     0.963670000000     0.429880000000     0.0836653  
H84      H      0.288790000000     0.912560000000     0.396970000000     0.169079   
H85      H      0.463610000000     0.671320000000     0.426980000000     0.0442307  
H86      H      0.422310000000     0.713810000000     0.372950000000     0.0463132  
H87      H      0.321490000000     0.614520000000     0.371130000000     0.0745035  
H88      H      0.339480000000     0.570700000000     0.454340000000     0.161962   
H89      H      0.114260000000     0.819660000000     0.373980000000     0.0437015  
H90      H      0.072080000000     0.860690000000     0.428690000000     0.0470912  
H91      H      0.165270000000     0.966690000000     0.420530000000     0.0720394  
H92      H      0.200420000000     0.948850000000     0.332460000000     0.159582   
H93      H      0.422130000000     0.824610000000     0.179440000000     0.0548411  
H94      H      0.462330000000     0.863720000000     0.122250000000     0.0493607  
H95      H      0.363530000000     0.965090000000     0.121920000000     0.0723324  
H96      H      0.323930000000     0.949870000000     0.208190000000     0.161714   
H97      H      0.073680000000     0.670880000000     0.620690000000     0.0465599  
H98      H      0.112810000000     0.711110000000     0.677850000000     0.0575126  
H99      H      0.214700000000     0.612870000000     0.678110000000     0.0720471  
H100     H      0.199490000000     0.573140000000     0.591950000000     0.161702   
H101     H      0.073390000000     0.670540000000     0.927060000000     0.0444982  
H102     H      0.114710000000     0.713090000000     0.873320000000     0.0468236  
H103     H      0.217340000000     0.615650000000     0.874060000000     0.0726062  
H104     H      0.169750000000     0.541900000000     0.908320000000     0.156248   
H105     H      0.211840000000     0.920560000000     0.677350000000     0.0574352  
H106     H      0.172730000000     0.960810000000     0.620260000000     0.0601078  
H107     H      0.070880000000     0.862470000000     0.619880000000     0.0720333  
H108     H      0.086070000000     0.822620000000     0.705910000000     0.157428   
H109     H      0.324260000000     0.614910000000     0.678030000000     0.0459885  
H110     H      0.363390000000     0.574640000000     0.621050000000     0.0482204  
H111     H      0.464750000000     0.673430000000     0.619800000000     0.0715839  
H112     H      0.449580000000     0.713660000000     0.705810000000     0.157745   
H113     H      0.421110000000     0.824090000000     0.870980000000     0.0443497  
H114     H      0.463590000000     0.865520000000     0.924690000000     0.0473968  
H115     H      0.361780000000     0.963670000000     0.929890000000     0.0836815  
H116     H      0.288790000000     0.912560000000     0.896970000000     0.169113   
H117     H      0.463610000000     0.671320000000     0.926980000000     0.044269   
H118     H      0.422310000000     0.713810000000     0.872950000000     0.0463229  
H119     H      0.321490000000     0.614520000000     0.871130000000     0.0745108  
H120     H      0.339480000000     0.570700000000     0.954340000000     0.162035   
H121     H      0.114260000000     0.819660000000     0.873970000000     0.0437172  
H122     H      0.072080000000     0.860690000000     0.928690000000     0.0471248  
H123     H      0.165270000000     0.966690000000     0.920520000000     0.0720469  
H124     H      0.200420000000     0.948850000000     0.832460000000     0.159644   
H125     H      0.422130000000     0.824610000000     0.679440000000     0.0548474  
H126     H      0.462330000000     0.863720000000     0.622250000000     0.0493915  
H127     H      0.363530000000     0.965090000000     0.621920000000     0.0723433  
H128     H      0.323930000000     0.949870000000     0.708190000000     0.161706   
H129     H      0.573680000000     0.170880000000     0.120680000000     0.0465594  
H130     H      0.612810000000     0.211110000000     0.177850000000     0.0575084  
H131     H      0.714700000000     0.112860000000     0.178110000000     0.0720251  
H132     H      0.699490000000     0.073140000000     0.091940000000     0.161626   
H133     H      0.573390000000     0.170540000000     0.427060000000     0.0444777  
H134     H      0.614710000000     0.213090000000     0.373320000000     0.0468435  
H135     H      0.717340000000     0.115650000000     0.374060000000     0.0725836  
H136     H      0.669750000000     0.041900000000     0.408320000000     0.156222   
H137     H      0.711840000000     0.420560000000     0.177350000000     0.057407   
H138     H      0.672730000000     0.460810000000     0.120260000000     0.0600699  
H139     H      0.570880000000     0.362480000000     0.119880000000     0.0720103  
H140     H      0.586060000000     0.322620000000     0.205920000000     0.157318   
H141     H      0.824260000000     0.114910000000     0.178030000000     0.0459774  
H142     H      0.863390000000     0.074640000000     0.121050000000     0.0481749  
H143     H      0.964750000000     0.173430000000     0.119800000000     0.0715857  
H144     H      0.949580000000     0.213660000000     0.205810000000     0.157772   
H145     H      0.921110000000     0.324090000000     0.370990000000     0.0443431  
H146     H      0.963590000000     0.365520000000     0.424680000000     0.047384   
H147     H      0.861780000000     0.463670000000     0.429880000000     0.0836317  
H148     H      0.788790000000     0.412560000000     0.396970000000     0.169069   
H149     H      0.963610000000     0.171320000000     0.426980000000     0.0442604  
H150     H      0.922310000000     0.213810000000     0.372950000000     0.046323   
H151     H      0.821490000000     0.114520000000     0.371130000000     0.0744987  
H152     H      0.839480000000     0.070700000000     0.454340000000     0.161894   
H153     H      0.614260000000     0.319660000000     0.373980000000     0.043706   
H154     H      0.572080000000     0.360690000000     0.428690000000     0.0471105  
H155     H      0.665270000000     0.466680000000     0.420530000000     0.0720266  
H156     H      0.700420000000     0.448850000000     0.332460000000     0.159581   
H157     H      0.922130000000     0.324610000000     0.179440000000     0.0548612  
H158     H      0.962330000000     0.363710000000     0.122250000000     0.0493525  
H159     H      0.863530000000     0.465090000000     0.121920000000     0.0723351  
H160     H      0.823930000000     0.449870000000     0.208190000000     0.161701   
H161     H      0.573680000000     0.170880000000     0.620690000000     0.0465752  
H162     H      0.612810000000     0.211110000000     0.677850000000     0.0575245  
H163     H      0.714700000000     0.112860000000     0.678110000000     0.0720295  
H164     H      0.699490000000     0.073140000000     0.591950000000     0.161691   
H165     H      0.573390000000     0.170540000000     0.927060000000     0.0445199  
H166     H      0.614710000000     0.213090000000     0.873320000000     0.0468453  
H167     H      0.717340000000     0.115650000000     0.874060000000     0.0725899  
H168     H      0.669750000000     0.041900000000     0.908320000000     0.156216   
H169     H      0.711840000000     0.420560000000     0.677350000000     0.0574141  
H170     H      0.672730000000     0.460810000000     0.620260000000     0.0600946  
H171     H      0.570880000000     0.362480000000     0.619880000000     0.0720496  
H172     H      0.586060000000     0.322620000000     0.705910000000     0.157383   
H173     H      0.824260000000     0.114910000000     0.678030000000     0.0459845  
H174     H      0.863390000000     0.074640000000     0.621050000000     0.0481991  
H175     H      0.964750000000     0.173430000000     0.619800000000     0.0716104  
H176     H      0.949580000000     0.213660000000     0.705810000000     0.157765   
H177     H      0.921110000000     0.324090000000     0.870980000000     0.0443583  
H178     H      0.963590000000     0.365520000000     0.924690000000     0.0474163  
H179     H      0.861780000000     0.463670000000     0.929890000000     0.0836478  
H180     H      0.788790000000     0.412560000000     0.896970000000     0.169103   
H181     H      0.963610000000     0.171320000000     0.926980000000     0.0442986  
H182     H      0.922310000000     0.213810000000     0.872950000000     0.0463326  
H183     H      0.821490000000     0.114520000000     0.871130000000     0.074506   
H184     H      0.839480000000     0.070700000000     0.954340000000     0.161967   
H185     H      0.614260000000     0.319660000000     0.873970000000     0.0437217  
H186     H      0.572080000000     0.360690000000     0.928690000000     0.047144   
H187     H      0.665270000000     0.466680000000     0.920520000000     0.0720341  
H188     H      0.700420000000     0.448850000000     0.832460000000     0.159642   
H189     H      0.922130000000     0.324610000000     0.679440000000     0.0548674  
H190     H      0.962330000000     0.363710000000     0.622250000000     0.0493833  
H191     H      0.863530000000     0.465090000000     0.621920000000     0.0723461  
H192     H      0.823930000000     0.449870000000     0.708190000000     0.161693   
H193     H      0.573680000000     0.670880000000     0.120680000000     0.0465648  
H194     H      0.612810000000     0.711110000000     0.177850000000     0.0575082  
H195     H      0.714700000000     0.612870000000     0.178110000000     0.0720426  
H196     H      0.699490000000     0.573140000000     0.091940000000     0.161634   
H197     H      0.573390000000     0.670540000000     0.427060000000     0.0444786  
H198     H      0.614710000000     0.713090000000     0.373320000000     0.0468443  
H199     H      0.717340000000     0.615650000000     0.374060000000     0.0725924  
H200     H      0.669750000000     0.541900000000     0.408320000000     0.156257   
H201     H      0.711840000000     0.920560000000     0.177350000000     0.0574232  
H202     H      0.672730000000     0.960810000000     0.120260000000     0.0600867  
H203     H      0.570880000000     0.862470000000     0.119880000000     0.0720111  
H204     H      0.586060000000     0.822620000000     0.205920000000     0.157321   
H205     H      0.824260000000     0.614910000000     0.178030000000     0.0459819  
H206     H      0.863390000000     0.574640000000     0.121050000000     0.0481963  
H207     H      0.964750000000     0.673430000000     0.119800000000     0.0715865  
H208     H      0.949580000000     0.713660000000     0.205810000000     0.157775   
H209     H      0.921110000000     0.824090000000     0.370990000000     0.0443355  
H210     H      0.963590000000     0.865520000000     0.424680000000     0.0473935  
H211     H      0.861780000000     0.963670000000     0.429880000000     0.0836579  
H212     H      0.788790000000     0.912560000000     0.396970000000     0.169073   
H213     H      0.963610000000     0.671320000000     0.426980000000     0.0442611  
H214     H      0.922310000000     0.713810000000     0.372950000000     0.0463234  
H215     H      0.821490000000     0.614520000000     0.371130000000     0.0745073  
H216     H      0.839480000000     0.570700000000     0.454340000000     0.161904   
H217     H      0.614260000000     0.819660000000     0.373980000000     0.043708   
H218     H      0.572080000000     0.860690000000     0.428690000000     0.0471265  
H219     H      0.665270000000     0.966690000000     0.420530000000     0.0720364  
H220     H      0.700420000000     0.948850000000     0.332460000000     0.1596     
H221     H      0.922130000000     0.824610000000     0.179440000000     0.0548527  
H222     H      0.962330000000     0.863720000000     0.122250000000     0.0493892  
H223     H      0.863530000000     0.965090000000     0.121920000000     0.0723628  
H224     H      0.823930000000     0.949870000000     0.208190000000     0.161721   
H225     H      0.573680000000     0.670880000000     0.620690000000     0.0465806  
H226     H      0.612810000000     0.711110000000     0.677850000000     0.0575243  
H227     H      0.714700000000     0.612870000000     0.678110000000     0.072047   
H228     H      0.699490000000     0.573140000000     0.591950000000     0.161699   
H229     H      0.573390000000     0.670540000000     0.927060000000     0.0445208  
H230     H      0.614710000000     0.713090000000     0.873320000000     0.0468461  
H231     H      0.717340000000     0.615650000000     0.874060000000     0.0725987  
H232     H      0.669750000000     0.541900000000     0.908320000000     0.156251   
H233     H      0.711840000000     0.920560000000     0.677350000000     0.0574303  
H234     H      0.672730000000     0.960810000000     0.620260000000     0.0601114  
H235     H      0.570880000000     0.862470000000     0.619880000000     0.0720503  
H236     H      0.586060000000     0.822620000000     0.705910000000     0.157385   
H237     H      0.824260000000     0.614910000000     0.678030000000     0.0459889  
H238     H      0.863390000000     0.574640000000     0.621050000000     0.0482206  
H239     H      0.964750000000     0.673430000000     0.619800000000     0.0716112  
H240     H      0.949580000000     0.713660000000     0.705810000000     0.157768   
H241     H      0.921110000000     0.824090000000     0.870980000000     0.0443507  
H242     H      0.963590000000     0.865520000000     0.924690000000     0.0474258  
H243     H      0.861780000000     0.963670000000     0.929890000000     0.0836741  
H244     H      0.788790000000     0.912560000000     0.896970000000     0.169107   
H245     H      0.963610000000     0.671320000000     0.926980000000     0.0442994  
H246     H      0.922310000000     0.713810000000     0.872950000000     0.046333   
H247     H      0.821490000000     0.614520000000     0.871130000000     0.0745147  
H248     H      0.839480000000     0.570700000000     0.954340000000     0.161977   
H249     H      0.614260000000     0.819660000000     0.873970000000     0.0437237  
H250     H      0.572080000000     0.860690000000     0.928690000000     0.0471601  
H251     H      0.665270000000     0.966690000000     0.920520000000     0.0720439  
H252     H      0.700420000000     0.948850000000     0.832460000000     0.159661   
H253     H      0.922130000000     0.824610000000     0.679440000000     0.0548589  
H254     H      0.962330000000     0.863720000000     0.622250000000     0.04942    
H255     H      0.863530000000     0.965090000000     0.621920000000     0.0723737  
H256     H      0.823930000000     0.949870000000     0.708190000000     0.161713   
N1       N      0.166800000000     0.165110000000     0.182570000000    -0.159286   
N2       N      0.121360000000     0.118180000000     0.115720000000    -0.198848   
N3       N      0.169180000000     0.167580000000     0.369220000000    -0.160032   
N4       N      0.120990000000     0.117760000000     0.431900000000    -0.198218   
N5       N      0.118770000000     0.414760000000     0.115540000000    -0.159635   
N6       N      0.164160000000     0.367830000000     0.182240000000    -0.198459   
N7       N      0.417130000000     0.120910000000     0.115860000000    -0.160447   
N8       N      0.371660000000     0.167920000000     0.182610000000    -0.198868   
N9       N      0.416110000000     0.417980000000     0.431430000000    -0.158746   
N10      N      0.366290000000     0.369570000000     0.368870000000    -0.197797   
N11      N      0.368620000000     0.167540000000     0.367770000000    -0.159682   
N12      N      0.416590000000     0.117980000000     0.430910000000    -0.198195   
N13      N      0.115520000000     0.416890000000     0.429120000000    -0.159676   
N14      N      0.164150000000     0.369660000000     0.364820000000    -0.19846    
N15      N      0.415940000000     0.417350000000     0.117410000000    -0.160786   
N16      N      0.369110000000     0.371980000000     0.184220000000    -0.198053   
N17      N      0.166800000000     0.165110000000     0.682570000000    -0.159281   
N18      N      0.121360000000     0.118180000000     0.615720000000    -0.19887    
N19      N      0.169180000000     0.167580000000     0.869220000000    -0.160036   
N20      N      0.120990000000     0.117760000000     0.931900000000    -0.198157   
N21      N      0.118770000000     0.414760000000     0.615540000000    -0.159621   
N22      N      0.164160000000     0.367830000000     0.682240000000    -0.198468   
N23      N      0.417130000000     0.120910000000     0.615860000000    -0.160444   
N24      N      0.371660000000     0.167920000000     0.682610000000    -0.198865   
N25      N      0.416110000000     0.417980000000     0.931430000000    -0.158733   
N26      N      0.366290000000     0.369570000000     0.868870000000    -0.197791   
N27      N      0.368620000000     0.167540000000     0.867770000000    -0.15968    
N28      N      0.416590000000     0.117980000000     0.930910000000    -0.198168   
N29      N      0.115520000000     0.416890000000     0.929110000000    -0.159626   
N30      N      0.164150000000     0.369660000000     0.864820000000    -0.198465   
N31      N      0.415940000000     0.417350000000     0.617410000000    -0.160787   
N32      N      0.369110000000     0.371980000000     0.684220000000    -0.19805    
N33      N      0.166800000000     0.665110000000     0.182570000000    -0.159308   
N34      N      0.121360000000     0.618180000000     0.115720000000    -0.1988     
N35      N      0.169180000000     0.667580000000     0.369220000000    -0.160031   
N36      N      0.120990000000     0.617760000000     0.431900000000    -0.198216   
N37      N      0.118770000000     0.914770000000     0.115540000000    -0.159638   
N38      N      0.164160000000     0.867830000000     0.182240000000    -0.198433   
N39      N      0.417130000000     0.620910000000     0.115860000000    -0.160445   
N40      N      0.371660000000     0.667920000000     0.182610000000    -0.198886   
N41      N      0.416110000000     0.917980000000     0.431430000000    -0.158732   
N42      N      0.366290000000     0.869570000000     0.368870000000    -0.197809   
N43      N      0.368620000000     0.667540000000     0.367770000000    -0.159682   
N44      N      0.416590000000     0.617980000000     0.430910000000    -0.198193   
N45      N      0.115520000000     0.916890000000     0.429120000000    -0.159659   
N46      N      0.164150000000     0.869660000000     0.364820000000    -0.198449   
N47      N      0.415940000000     0.917350000000     0.117410000000    -0.160735   
N48      N      0.369110000000     0.871980000000     0.184220000000    -0.19806    
N49      N      0.166800000000     0.665110000000     0.682570000000    -0.159303   
N50      N      0.121360000000     0.618180000000     0.615720000000    -0.198821   
N51      N      0.169180000000     0.667580000000     0.869220000000    -0.160036   
N52      N      0.120990000000     0.617760000000     0.931900000000    -0.198155   
N53      N      0.118770000000     0.914770000000     0.615540000000    -0.159624   
N54      N      0.164160000000     0.867830000000     0.682240000000    -0.198441   
N55      N      0.417130000000     0.620910000000     0.615860000000    -0.160442   
N56      N      0.371660000000     0.667920000000     0.682610000000    -0.198884   
N57      N      0.416110000000     0.917980000000     0.931430000000    -0.158719   
N58      N      0.366290000000     0.869570000000     0.868870000000    -0.197802   
N59      N      0.368620000000     0.667540000000     0.867770000000    -0.15968    
N60      N      0.416590000000     0.617980000000     0.930910000000    -0.198166   
N61      N      0.115520000000     0.916890000000     0.929110000000    -0.15961    
N62      N      0.164150000000     0.869660000000     0.864820000000    -0.198455   
N63      N      0.415940000000     0.917350000000     0.617410000000    -0.160736   
N64      N      0.369110000000     0.871980000000     0.684220000000    -0.198057   
N65      N      0.666800000000     0.165110000000     0.182570000000    -0.159284   
N66      N      0.621360000000     0.118180000000     0.115720000000    -0.198869   
N67      N      0.669190000000     0.167580000000     0.369220000000    -0.160052   
N68      N      0.620990000000     0.117760000000     0.431900000000    -0.198197   
N69      N      0.618770000000     0.414760000000     0.115540000000    -0.159636   
N70      N      0.664170000000     0.367830000000     0.182240000000    -0.198461   
N71      N      0.917130000000     0.120910000000     0.115860000000    -0.160442   
N72      N      0.871660000000     0.167920000000     0.182610000000    -0.198867   
N73      N      0.916110000000     0.417980000000     0.431430000000    -0.158766   
N74      N      0.866300000000     0.369570000000     0.368870000000    -0.197767   
N75      N      0.868620000000     0.167540000000     0.367770000000    -0.159677   
N76      N      0.916580000000     0.117980000000     0.430910000000    -0.198202   
N77      N      0.615520000000     0.416890000000     0.429120000000    -0.159663   
N78      N      0.664150000000     0.369660000000     0.364820000000    -0.198441   
N79      N      0.915940000000     0.417350000000     0.117410000000    -0.160766   
N80      N      0.869110000000     0.371980000000     0.184220000000    -0.19806    
N81      N      0.666800000000     0.165110000000     0.682570000000    -0.15928    
N82      N      0.621360000000     0.118180000000     0.615720000000    -0.198891   
N83      N      0.669190000000     0.167580000000     0.869220000000    -0.160056   
N84      N      0.620990000000     0.117760000000     0.931900000000    -0.198136   
N85      N      0.618770000000     0.414760000000     0.615540000000    -0.159623   
N86      N      0.664170000000     0.367830000000     0.682240000000    -0.198469   
N87      N      0.917130000000     0.120910000000     0.615860000000    -0.160439   
N88      N      0.871660000000     0.167920000000     0.682610000000    -0.198865   
N89      N      0.916110000000     0.417980000000     0.931430000000    -0.158752   
N90      N      0.866300000000     0.369570000000     0.868870000000    -0.197761   
N91      N      0.868620000000     0.167540000000     0.867770000000    -0.159675   
N92      N      0.916580000000     0.117980000000     0.930910000000    -0.198175   
N93      N      0.615520000000     0.416890000000     0.929110000000    -0.159614   
N94      N      0.664150000000     0.369660000000     0.864820000000    -0.198447   
N95      N      0.915940000000     0.417350000000     0.617410000000    -0.160767   
N96      N      0.869110000000     0.371980000000     0.684220000000    -0.198057   
N97      N      0.666800000000     0.665110000000     0.182570000000    -0.159306   
N98      N      0.621360000000     0.618180000000     0.115720000000    -0.198821   
N99      N      0.669190000000     0.667580000000     0.369220000000    -0.160051   
N100     N      0.620990000000     0.617760000000     0.431900000000    -0.198195   
N101     N      0.618770000000     0.914770000000     0.115540000000    -0.159639   
N102     N      0.664170000000     0.867830000000     0.182240000000    -0.198435   
N103     N      0.917130000000     0.620910000000     0.115860000000    -0.160439   
N104     N      0.871660000000     0.667920000000     0.182610000000    -0.198886   
N105     N      0.916110000000     0.917980000000     0.431430000000    -0.158752   
N106     N      0.866300000000     0.869570000000     0.368870000000    -0.197779   
N107     N      0.868620000000     0.667540000000     0.367770000000    -0.159677   
N108     N      0.916580000000     0.617980000000     0.430910000000    -0.1982     
N109     N      0.615520000000     0.916890000000     0.429120000000    -0.159647   
N110     N      0.664150000000     0.869660000000     0.364820000000    -0.198431   
N111     N      0.915940000000     0.917350000000     0.117410000000    -0.160715   
N112     N      0.869110000000     0.871980000000     0.184220000000    -0.198067   
N113     N      0.666800000000     0.665110000000     0.682570000000    -0.159302   
N114     N      0.621360000000     0.618180000000     0.615720000000    -0.198842   
N115     N      0.669190000000     0.667580000000     0.869220000000    -0.160056   
N116     N      0.620990000000     0.617760000000     0.931900000000    -0.198134   
N117     N      0.618770000000     0.914770000000     0.615540000000    -0.159626   
N118     N      0.664170000000     0.867830000000     0.682240000000    -0.198443   
N119     N      0.917130000000     0.620910000000     0.615860000000    -0.160436   
N120     N      0.871660000000     0.667920000000     0.682610000000    -0.198884   
N121     N      0.916110000000     0.917980000000     0.931430000000    -0.158738   
N122     N      0.866300000000     0.869570000000     0.868870000000    -0.197772   
N123     N      0.868620000000     0.667540000000     0.867770000000    -0.159675   
N124     N      0.916580000000     0.617980000000     0.930910000000    -0.198172   
N125     N      0.615520000000     0.916890000000     0.929110000000    -0.159597   
N126     N      0.664150000000     0.869660000000     0.864820000000    -0.198437   
N127     N      0.915940000000     0.917350000000     0.617410000000    -0.160716   
N128     N      0.869110000000     0.871980000000     0.684220000000    -0.198064   
O1       O      0.424000000000     0.476800000000     0.070370000000    -0.359167   
O2       O      0.112180000000     0.058260000000     0.069020000000    -0.346549   
O3       O      0.058810000000     0.423370000000     0.069150000000    -0.35831    
O4       O      0.476750000000     0.112310000000     0.068810000000    -0.357541   
O5       O      0.111620000000     0.474780000000     0.068920000000    -0.35198    
O6       O      0.424270000000     0.060540000000     0.069730000000    -0.359191   
O7       O      0.060990000000     0.111070000000     0.069010000000    -0.359724   
O8       O      0.475630000000     0.424210000000     0.070180000000    -0.35868    
O9       O      0.425620000000     0.057890000000     0.477460000000    -0.357849   
O10      O      0.107720000000     0.477060000000     0.475370000000    -0.365201   
O11      O      0.477080000000     0.425920000000     0.476820000000    -0.36574    
O12      O      0.059540000000     0.109580000000     0.477010000000    -0.36853    
O13      O      0.111300000000     0.057290000000     0.477920000000    -0.355125   
O14      O      0.424800000000     0.477890000000     0.478020000000    -0.358462   
O15      O      0.477600000000     0.109970000000     0.476790000000    -0.367932   
O16      O      0.056410000000     0.424160000000     0.477180000000    -0.36346    
O17      O      0.517820000000     0.517740000000     0.042560000000    -0.590916   
O18      O      0.308780000000     0.362500000000     0.230300000000    -0.347935   
O19      O      0.226750000000     0.173710000000     0.229100000000    -0.358752   
O20      O      0.362540000000     0.227520000000     0.229830000000    -0.348963   
O21      O      0.173090000000     0.308240000000     0.229370000000    -0.349224   
O22      O      0.311060000000     0.174980000000     0.228920000000    -0.360943   
O23      O      0.224580000000     0.360720000000     0.228730000000    -0.354344   
O24      O      0.173810000000     0.225010000000     0.229450000000    -0.351934   
O25      O      0.361670000000     0.311400000000     0.230370000000    -0.354969   
O26      O      0.225060000000     0.360550000000     0.319330000000    -0.353978   
O27      O      0.308640000000     0.175870000000     0.321210000000    -0.365328   
O28      O      0.359240000000     0.309170000000     0.322440000000    -0.368956   
O29      O      0.176130000000     0.227550000000     0.322570000000    -0.367547   
O30      O      0.228910000000     0.176070000000     0.322190000000    -0.365631   
O31      O      0.306190000000     0.360150000000     0.322010000000    -0.351143   
O32      O      0.173860000000     0.307750000000     0.320830000000    -0.366853   
O33      O      0.360450000000     0.228340000000     0.322090000000    -0.365211   
O34      O      0.267730000000     0.267810000000     0.256150000000    -0.590583   
O35      O      0.180050000000     0.064200000000     0.117250000000    -0.276154   
O36      O      0.179910000000     0.064110000000     0.430550000000    -0.273221   
O37      O      0.105570000000     0.313750000000     0.180620000000    -0.276579   
O38      O      0.429940000000     0.222300000000     0.180550000000    -0.276879   
O39      O      0.309590000000     0.425210000000     0.374570000000    -0.263319   
O40      O      0.358510000000     0.063360000000     0.428200000000    -0.273678   
O41      O      0.212640000000     0.432600000000     0.358650000000    -0.27041    
O42      O      0.314950000000     0.430520000000     0.182850000000    -0.275331   
O43      O      0.424000000000     0.476800000000     0.570370000000    -0.359167   
O44      O      0.112180000000     0.058260000000     0.569020000000    -0.346554   
O45      O      0.058810000000     0.423370000000     0.569150000000    -0.358305   
O46      O      0.476750000000     0.112310000000     0.568810000000    -0.357537   
O47      O      0.111620000000     0.474780000000     0.568920000000    -0.351977   
O48      O      0.424270000000     0.060540000000     0.569730000000    -0.359187   
O49      O      0.060990000000     0.111070000000     0.569010000000    -0.359717   
O50      O      0.475630000000     0.424210000000     0.570180000000    -0.358683   
O51      O      0.425620000000     0.057890000000     0.977460000000    -0.357607   
O52      O      0.107720000000     0.477060000000     0.975370000000    -0.364955   
O53      O      0.477080000000     0.425920000000     0.976820000000    -0.365493   
O54      O      0.059540000000     0.109580000000     0.977010000000    -0.368323   
O55      O      0.111300000000     0.057290000000     0.977920000000    -0.354919   
O56      O      0.424800000000     0.477890000000     0.978020000000    -0.35822    
O57      O      0.477600000000     0.109970000000     0.976790000000    -0.367683   
O58      O      0.056410000000     0.424160000000     0.977170000000    -0.363201   
O59      O      0.517820000000     0.517740000000     0.542560000000    -0.591076   
O60      O      0.308780000000     0.362500000000     0.730300000000    -0.347979   
O61      O      0.226750000000     0.173710000000     0.729100000000    -0.358752   
O62      O      0.362540000000     0.227520000000     0.729830000000    -0.348963   
O63      O      0.173090000000     0.308240000000     0.729370000000    -0.349229   
O64      O      0.311060000000     0.174980000000     0.728920000000    -0.360942   
O65      O      0.224580000000     0.360720000000     0.728730000000    -0.354389   
O66      O      0.173810000000     0.225010000000     0.729450000000    -0.351932   
O67      O      0.361670000000     0.311400000000     0.730370000000    -0.354975   
O68      O      0.225060000000     0.360550000000     0.819330000000    -0.353935   
O69      O      0.308640000000     0.175870000000     0.821210000000    -0.365326   
O70      O      0.359240000000     0.309170000000     0.822440000000    -0.368949   
O71      O      0.176130000000     0.227550000000     0.822570000000    -0.367545   
O72      O      0.228910000000     0.176070000000     0.822190000000    -0.365629   
O73      O      0.306190000000     0.360150000000     0.822010000000    -0.3511     
O74      O      0.173860000000     0.307750000000     0.820830000000    -0.366845   
O75      O      0.360450000000     0.228340000000     0.822090000000    -0.365208   
O76      O      0.267730000000     0.267810000000     0.756150000000    -0.590596   
O77      O      0.180050000000     0.064200000000     0.617260000000    -0.276194   
O78      O      0.179910000000     0.064110000000     0.930550000000    -0.273159   
O79      O      0.105570000000     0.313750000000     0.680620000000    -0.276651   
O80      O      0.429940000000     0.222300000000     0.680550000000    -0.276861   
O81      O      0.309590000000     0.425210000000     0.874570000000    -0.263316   
O82      O      0.358510000000     0.063360000000     0.928200000000    -0.27368    
O83      O      0.212640000000     0.432600000000     0.858640000000    -0.270479   
O84      O      0.314950000000     0.430520000000     0.682850000000    -0.275308   
O85      O      0.424000000000     0.976800000000     0.070370000000    -0.359065   
O86      O      0.112180000000     0.558250000000     0.069020000000    -0.346557   
O87      O      0.058810000000     0.923370000000     0.069150000000    -0.358235   
O88      O      0.476750000000     0.612310000000     0.068810000000    -0.357541   
O89      O      0.111620000000     0.974790000000     0.068920000000    -0.351841   
O90      O      0.424270000000     0.560540000000     0.069730000000    -0.359184   
O91      O      0.060990000000     0.611070000000     0.069010000000    -0.359668   
O92      O      0.475630000000     0.924200000000     0.070180000000    -0.358549   
O93      O      0.425620000000     0.557890000000     0.477460000000    -0.357842   
O94      O      0.107720000000     0.977060000000     0.475370000000    -0.365117   
O95      O      0.477080000000     0.925920000000     0.476820000000    -0.365689   
O96      O      0.059540000000     0.609580000000     0.477010000000    -0.368527   
O97      O      0.111300000000     0.557290000000     0.477920000000    -0.355118   
O98      O      0.424800000000     0.977890000000     0.478020000000    -0.358377   
O99      O      0.477600000000     0.609970000000     0.476790000000    -0.367927   
O100     O      0.056410000000     0.924160000000     0.477180000000    -0.363407   
O101     O      0.517820000000     0.017740000000     0.042560000000    -0.590979   
O102     O      0.308780000000     0.862500000000     0.230300000000    -0.347933   
O103     O      0.226750000000     0.673710000000     0.229100000000    -0.358788   
O104     O      0.362540000000     0.727520000000     0.229830000000    -0.34898    
O105     O      0.173090000000     0.808230000000     0.229370000000    -0.349155   
O106     O      0.311060000000     0.674990000000     0.228920000000    -0.361019   
O107     O      0.224580000000     0.860720000000     0.228730000000    -0.354304   
O108     O      0.173810000000     0.725000000000     0.229450000000    -0.351998   
O109     O      0.361670000000     0.811400000000     0.230370000000    -0.354968   
O110     O      0.225060000000     0.860550000000     0.319330000000    -0.353976   
O111     O      0.308640000000     0.675870000000     0.321210000000    -0.36533    
O112     O      0.359240000000     0.809170000000     0.322440000000    -0.368958   
O113     O      0.176130000000     0.727550000000     0.322570000000    -0.367546   
O114     O      0.228910000000     0.676070000000     0.322190000000    -0.365634   
O115     O      0.306190000000     0.860150000000     0.322010000000    -0.35114    
O116     O      0.173860000000     0.807750000000     0.320830000000    -0.366853   
O117     O      0.360450000000     0.728340000000     0.322090000000    -0.365212   
O118     O      0.267730000000     0.767810000000     0.256150000000    -0.590585   
O119     O      0.180050000000     0.564200000000     0.117250000000    -0.276122   
O120     O      0.179910000000     0.564110000000     0.430550000000    -0.273206   
O121     O      0.105570000000     0.813750000000     0.180620000000    -0.276582   
O122     O      0.429940000000     0.722300000000     0.180550000000    -0.276881   
O123     O      0.309590000000     0.925210000000     0.374570000000    -0.263304   
O124     O      0.358510000000     0.563360000000     0.428200000000    -0.273647   
O125     O      0.212640000000     0.932600000000     0.358650000000    -0.270398   
O126     O      0.314950000000     0.930520000000     0.182850000000    -0.275326   
O127     O      0.424000000000     0.976800000000     0.570370000000    -0.359065   
O128     O      0.112180000000     0.558250000000     0.569020000000    -0.346562   
O129     O      0.058810000000     0.923370000000     0.569150000000    -0.358229   
O130     O      0.476750000000     0.612310000000     0.568810000000    -0.357537   
O131     O      0.111620000000     0.974790000000     0.568920000000    -0.351839   
O132     O      0.424270000000     0.560540000000     0.569730000000    -0.359181   
O133     O      0.060990000000     0.611070000000     0.569010000000    -0.359661   
O134     O      0.475630000000     0.924200000000     0.570180000000    -0.358553   
O135     O      0.425620000000     0.557890000000     0.977460000000    -0.3576     
O136     O      0.107720000000     0.977060000000     0.975370000000    -0.364871   
O137     O      0.477080000000     0.925920000000     0.976820000000    -0.365443   
O138     O      0.059540000000     0.609580000000     0.977010000000    -0.36832    
O139     O      0.111300000000     0.557290000000     0.977920000000    -0.354912   
O140     O      0.424800000000     0.977890000000     0.978020000000    -0.358135   
O141     O      0.477600000000     0.609970000000     0.976790000000    -0.367679   
O142     O      0.056410000000     0.924160000000     0.977170000000    -0.363148   
O143     O      0.517820000000     0.017740000000     0.542560000000    -0.591138   
O144     O      0.308780000000     0.862500000000     0.730300000000    -0.347977   
O145     O      0.226750000000     0.673710000000     0.729100000000    -0.358787   
O146     O      0.362540000000     0.727520000000     0.729830000000    -0.34898    
O147     O      0.173090000000     0.808230000000     0.729370000000    -0.34916    
O148     O      0.311060000000     0.674990000000     0.728920000000    -0.361019   
O149     O      0.224580000000     0.860720000000     0.728730000000    -0.354349   
O150     O      0.173810000000     0.725000000000     0.729450000000    -0.351996   
O151     O      0.361670000000     0.811400000000     0.730370000000    -0.354975   
O152     O      0.225060000000     0.860550000000     0.819330000000    -0.353933   
O153     O      0.308640000000     0.675870000000     0.821210000000    -0.365328   
O154     O      0.359240000000     0.809170000000     0.822440000000    -0.368951   
O155     O      0.176130000000     0.727550000000     0.822570000000    -0.367543   
O156     O      0.228910000000     0.676070000000     0.822190000000    -0.365632   
O157     O      0.306190000000     0.860150000000     0.822010000000    -0.351097   
O158     O      0.173860000000     0.807750000000     0.820830000000    -0.366846   
O159     O      0.360450000000     0.728340000000     0.822090000000    -0.365209   
O160     O      0.267730000000     0.767810000000     0.756150000000    -0.590598   
O161     O      0.180050000000     0.564200000000     0.617260000000    -0.276161   
O162     O      0.179910000000     0.564110000000     0.930550000000    -0.273144   
O163     O      0.105570000000     0.813750000000     0.680620000000    -0.276653   
O164     O      0.429940000000     0.722300000000     0.680550000000    -0.276863   
O165     O      0.309590000000     0.925210000000     0.874570000000    -0.263301   
O166     O      0.358510000000     0.563360000000     0.928200000000    -0.273649   
O167     O      0.212640000000     0.932600000000     0.858640000000    -0.270467   
O168     O      0.314950000000     0.930520000000     0.682850000000    -0.275303   
O169     O      0.924000000000     0.476800000000     0.070370000000    -0.359175   
O170     O      0.612180000000     0.058260000000     0.069020000000    -0.346555   
O171     O      0.558810000000     0.423370000000     0.069150000000    -0.358339   
O172     O      0.976750000000     0.112310000000     0.068810000000    -0.357456   
O173     O      0.611620000000     0.474780000000     0.068920000000    -0.351976   
O174     O      0.924270000000     0.060540000000     0.069730000000    -0.35919    
O175     O      0.560990000000     0.111070000000     0.069010000000    -0.359633   
O176     O      0.975630000000     0.424210000000     0.070180000000    -0.358633   
O177     O      0.925630000000     0.057890000000     0.477460000000    -0.357911   
O178     O      0.607720000000     0.477060000000     0.475370000000    -0.365204   
O179     O      0.977080000000     0.425920000000     0.476820000000    -0.365614   
O180     O      0.559540000000     0.109580000000     0.477010000000    -0.368501   
O181     O      0.611310000000     0.057290000000     0.477920000000    -0.355032   
O182     O      0.924800000000     0.477890000000     0.478020000000    -0.358481   
O183     O      0.977600000000     0.109970000000     0.476790000000    -0.367856   
O184     O      0.556410000000     0.424160000000     0.477180000000    -0.363479   
O185     O      0.017820000000     0.517740000000     0.042560000000    -0.590961   
O186     O      0.808780000000     0.362500000000     0.230300000000    -0.347936   
O187     O      0.726750000000     0.173710000000     0.229100000000    -0.358752   
O188     O      0.862540000000     0.227520000000     0.229830000000    -0.348959   
O189     O      0.673090000000     0.308240000000     0.229370000000    -0.349228   
O190     O      0.811060000000     0.174980000000     0.228920000000    -0.360943   
O191     O      0.724580000000     0.360720000000     0.228730000000    -0.35435    
O192     O      0.673810000000     0.225010000000     0.229450000000    -0.351929   
O193     O      0.861670000000     0.311400000000     0.230370000000    -0.354964   
O194     O      0.725060000000     0.360550000000     0.319330000000    -0.354057   
O195     O      0.808640000000     0.175870000000     0.321210000000    -0.365327   
O196     O      0.859240000000     0.309170000000     0.322440000000    -0.368938   
O197     O      0.676130000000     0.227550000000     0.322570000000    -0.367555   
O198     O      0.728910000000     0.176070000000     0.322190000000    -0.365639   
O199     O      0.806190000000     0.360150000000     0.322010000000    -0.351132   
O200     O      0.673860000000     0.307750000000     0.320830000000    -0.36683    
O201     O      0.860450000000     0.228340000000     0.322090000000    -0.365207   
O202     O      0.767730000000     0.267810000000     0.256150000000    -0.590586   
O203     O      0.680050000000     0.064200000000     0.117250000000    -0.276153   
O204     O      0.679910000000     0.064110000000     0.430550000000    -0.273214   
O205     O      0.605570000000     0.313750000000     0.180620000000    -0.27649    
O206     O      0.929940000000     0.222300000000     0.180550000000    -0.276871   
O207     O      0.809590000000     0.425210000000     0.374570000000    -0.26331    
O208     O      0.858520000000     0.063360000000     0.428200000000    -0.273643   
O209     O      0.712640000000     0.432600000000     0.358650000000    -0.270458   
O210     O      0.814950000000     0.430520000000     0.182850000000    -0.275342   
O211     O      0.924000000000     0.476800000000     0.570370000000    -0.359175   
O212     O      0.612180000000     0.058260000000     0.569020000000    -0.34656    
O213     O      0.558810000000     0.423370000000     0.569150000000    -0.358333   
O214     O      0.976750000000     0.112310000000     0.568810000000    -0.357452   
O215     O      0.611620000000     0.474780000000     0.568920000000    -0.351973   
O216     O      0.924270000000     0.060540000000     0.569730000000    -0.359186   
O217     O      0.560990000000     0.111070000000     0.569010000000    -0.359626   
O218     O      0.975630000000     0.424210000000     0.570180000000    -0.358636   
O219     O      0.925630000000     0.057890000000     0.977460000000    -0.357669   
O220     O      0.607720000000     0.477060000000     0.975370000000    -0.364957   
O221     O      0.977080000000     0.425920000000     0.976820000000    -0.365368   
O222     O      0.559540000000     0.109580000000     0.977010000000    -0.368294   
O223     O      0.611310000000     0.057290000000     0.977920000000    -0.354826   
O224     O      0.924800000000     0.477890000000     0.978020000000    -0.358239   
O225     O      0.977600000000     0.109970000000     0.976790000000    -0.367607   
O226     O      0.556410000000     0.424160000000     0.977170000000    -0.36322    
O227     O      0.017820000000     0.517740000000     0.542560000000    -0.591121   
O228     O      0.808780000000     0.362500000000     0.730300000000    -0.34798    
O229     O      0.726750000000     0.173710000000     0.729100000000    -0.358751   
O230     O      0.862540000000     0.227520000000     0.729830000000    -0.348959   
O231     O      0.673090000000     0.308240000000     0.729370000000    -0.349233   
O232     O      0.811060000000     0.174980000000     0.728920000000    -0.360942   
O233     O      0.724580000000     0.360720000000     0.728730000000    -0.354395   
O234     O      0.673810000000     0.225010000000     0.729450000000    -0.351927   
O235     O      0.861670000000     0.311400000000     0.730370000000    -0.354971   
O236     O      0.725060000000     0.360550000000     0.819330000000    -0.354014   
O237     O      0.808640000000     0.175870000000     0.821210000000    -0.365325   
O238     O      0.859240000000     0.309170000000     0.822440000000    -0.368931   
O239     O      0.676130000000     0.227550000000     0.822570000000    -0.367553   
O240     O      0.728910000000     0.176070000000     0.822190000000    -0.365637   
O241     O      0.806190000000     0.360150000000     0.822010000000    -0.351089   
O242     O      0.673860000000     0.307750000000     0.820830000000    -0.366823   
O243     O      0.860450000000     0.228340000000     0.822090000000    -0.365204   
O244     O      0.767730000000     0.267810000000     0.756150000000    -0.590599   
O245     O      0.680050000000     0.064200000000     0.617260000000    -0.276193   
O246     O      0.679910000000     0.064110000000     0.930550000000    -0.273152   
O247     O      0.605570000000     0.313750000000     0.680620000000    -0.276562   
O248     O      0.929940000000     0.222300000000     0.680550000000    -0.276853   
O249     O      0.809590000000     0.425210000000     0.874570000000    -0.263307   
O250     O      0.858520000000     0.063360000000     0.928200000000    -0.273645   
O251     O      0.712640000000     0.432600000000     0.858640000000    -0.270526   
O252     O      0.814950000000     0.430520000000     0.682850000000    -0.275319   
O253     O      0.924000000000     0.976800000000     0.070370000000    -0.359072   
O254     O      0.612180000000     0.558250000000     0.069020000000    -0.346563   
O255     O      0.558810000000     0.923370000000     0.069150000000    -0.358263   
O256     O      0.976750000000     0.612310000000     0.068810000000    -0.357456   
O257     O      0.611620000000     0.974790000000     0.068920000000    -0.351837   
O258     O      0.924270000000     0.560540000000     0.069730000000    -0.359183   
O259     O      0.560990000000     0.611070000000     0.069010000000    -0.359576   
O260     O      0.975630000000     0.924200000000     0.070180000000    -0.358503   
O261     O      0.925630000000     0.557890000000     0.477460000000    -0.357904   
O262     O      0.607720000000     0.977060000000     0.475370000000    -0.36512    
O263     O      0.977080000000     0.925920000000     0.476820000000    -0.365564   
O264     O      0.559540000000     0.609580000000     0.477010000000    -0.368498   
O265     O      0.611310000000     0.557290000000     0.477920000000    -0.355025   
O266     O      0.924800000000     0.977890000000     0.478020000000    -0.358396   
O267     O      0.977600000000     0.609970000000     0.476790000000    -0.367851   
O268     O      0.556410000000     0.924160000000     0.477180000000    -0.363427   
O269     O      0.017820000000     0.017740000000     0.042560000000    -0.591023   
O270     O      0.808780000000     0.862500000000     0.230300000000    -0.347934   
O271     O      0.726750000000     0.673710000000     0.229100000000    -0.358788   
O272     O      0.862540000000     0.727520000000     0.229830000000    -0.348976   
O273     O      0.673090000000     0.808230000000     0.229370000000    -0.34916    
O274     O      0.811060000000     0.674990000000     0.228920000000    -0.361019   
O275     O      0.724580000000     0.860720000000     0.228730000000    -0.35431    
O276     O      0.673810000000     0.725000000000     0.229450000000    -0.351992   
O277     O      0.861670000000     0.811400000000     0.230370000000    -0.354964   
O278     O      0.725060000000     0.860550000000     0.319330000000    -0.354055   
O279     O      0.808640000000     0.675870000000     0.321210000000    -0.365329   
O280     O      0.859240000000     0.809170000000     0.322440000000    -0.36894    
O281     O      0.676130000000     0.727550000000     0.322570000000    -0.367553   
O282     O      0.728910000000     0.676070000000     0.322190000000    -0.365642   
O283     O      0.806190000000     0.860150000000     0.322010000000    -0.351129   
O284     O      0.673860000000     0.807750000000     0.320830000000    -0.366831   
O285     O      0.860450000000     0.728340000000     0.322090000000    -0.365208   
O286     O      0.767730000000     0.767810000000     0.256150000000    -0.590588   
O287     O      0.680050000000     0.564200000000     0.117250000000    -0.276121   
O288     O      0.679910000000     0.564110000000     0.430550000000    -0.2732     
O289     O      0.605570000000     0.813750000000     0.180620000000    -0.276492   
O290     O      0.929940000000     0.722300000000     0.180550000000    -0.276872   
O291     O      0.809590000000     0.925210000000     0.374570000000    -0.263294   
O292     O      0.858520000000     0.563360000000     0.428200000000    -0.273612   
O293     O      0.712640000000     0.932600000000     0.358650000000    -0.270445   
O294     O      0.814950000000     0.930520000000     0.182850000000    -0.275337   
O295     O      0.924000000000     0.976800000000     0.570370000000    -0.359072   
O296     O      0.612180000000     0.558250000000     0.569020000000    -0.346568   
O297     O      0.558810000000     0.923370000000     0.569150000000    -0.358258   
O298     O      0.976750000000     0.612310000000     0.568810000000    -0.357452   
O299     O      0.611620000000     0.974790000000     0.568920000000    -0.351835   
O300     O      0.924270000000     0.560540000000     0.569730000000    -0.35918    
O301     O      0.560990000000     0.611070000000     0.569010000000    -0.35957    
O302     O      0.975630000000     0.924200000000     0.570180000000    -0.358506   
O303     O      0.925630000000     0.557890000000     0.977460000000    -0.357662   
O304     O      0.607720000000     0.977060000000     0.975370000000    -0.364874   
O305     O      0.977080000000     0.925920000000     0.976820000000    -0.365317   
O306     O      0.559540000000     0.609580000000     0.977010000000    -0.368291   
O307     O      0.611310000000     0.557290000000     0.977920000000    -0.354819   
O308     O      0.924800000000     0.977890000000     0.978020000000    -0.358154   
O309     O      0.977600000000     0.609970000000     0.976790000000    -0.367603   
O310     O      0.556410000000     0.924160000000     0.977170000000    -0.363168   
O311     O      0.017820000000     0.017740000000     0.542560000000    -0.591183   
O312     O      0.808780000000     0.862500000000     0.730300000000    -0.347978   
O313     O      0.726750000000     0.673710000000     0.729100000000    -0.358787   
O314     O      0.862540000000     0.727520000000     0.729830000000    -0.348976   
O315     O      0.673090000000     0.808230000000     0.729370000000    -0.349165   
O316     O      0.811060000000     0.674990000000     0.728920000000    -0.361019   
O317     O      0.724580000000     0.860720000000     0.728730000000    -0.354355   
O318     O      0.673810000000     0.725000000000     0.729450000000    -0.351991   
O319     O      0.861670000000     0.811400000000     0.730370000000    -0.35497    
O320     O      0.725060000000     0.860550000000     0.819330000000    -0.354011   
O321     O      0.808640000000     0.675870000000     0.821210000000    -0.365327   
O322     O      0.859240000000     0.809170000000     0.822440000000    -0.368933   
O323     O      0.676130000000     0.727550000000     0.822570000000    -0.367551   
O324     O      0.728910000000     0.676070000000     0.822190000000    -0.36564    
O325     O      0.806190000000     0.860150000000     0.822010000000    -0.351086   
O326     O      0.673860000000     0.807750000000     0.820830000000    -0.366824   
O327     O      0.860450000000     0.728340000000     0.822090000000    -0.365205   
O328     O      0.767730000000     0.767810000000     0.756150000000    -0.590601   
O329     O      0.680050000000     0.564200000000     0.617260000000    -0.27616    
O330     O      0.679910000000     0.564110000000     0.930550000000    -0.273138   
O331     O      0.605570000000     0.813750000000     0.680620000000    -0.276564   
O332     O      0.929940000000     0.722300000000     0.680550000000    -0.276855   
O333     O      0.809590000000     0.925210000000     0.874570000000    -0.263291   
O334     O      0.858520000000     0.563360000000     0.928200000000    -0.273614   
O335     O      0.712640000000     0.932600000000     0.858640000000    -0.270514   
O336     O      0.814950000000     0.930520000000     0.682850000000    -0.275313   


