data_structure

_audit_creation_method RASPA-1.0
_audit_creation_date 2023-6-4
_audit_author_name 'Poobodin Mano'

_cell_length_a    30.376
_cell_length_b    29.9987
_cell_length_c    31.3332
_cell_angle_alpha 87.1331
_cell_angle_beta  93.8195
_cell_angle_gamma 120.436
_cell_volume      24558.4

_symmetry_cell_setting          triclinic
_symmetry_space_group_name_Hall 'P 1'
_symmetry_space_group_name_H-M  'P 1'
_symmetry_Int_Tables_number     1

_symmetry_equiv_pos_as_xyz 'x,y,z'

loop_
_atom_site_label
_atom_site_type_symbol
_atom_site_fract_x
_atom_site_fract_y
_atom_site_fract_z
_atom_site_charge
C1       C      0.117300000000     0.193780000000     0.048070000000     0.468749   
C2       C      0.984400000000     0.981030000000     0.074080000000     0.485804   
C3       C      0.076240000000     0.030340000000     0.983060000000     0.444209   
C4       C      0.037870000000     0.107420000000     0.150510000000     0.479914   
C5       C      0.135770000000     0.079660000000     0.197220000000     0.496675   
C6       C      0.187910000000     0.056500000000     0.046670000000     0.444738   
C7       C      0.223960000000     0.174520000000     0.082800000000     0.477486   
C8       C      0.068550000000     0.930560000000     0.102610000000     0.406231   
C9       C      0.027500000000     0.061190000000     0.461880000000     0.475378   
C10      C      0.042240000000     0.144880000000     0.649800000000     0.374872   
C11      C      0.955980000000     0.059590000000     0.552510000000     0.448937   
C12      C      0.156540000000     0.195430000000     0.563260000000     0.435996   
C13      C      0.177500000000     0.090410000000     0.582460000000     0.44789    
C14      C      0.966480000000     0.968210000000     0.617590000000     0.449042   
C15      C      0.095010000000     0.001030000000     0.513490000000     0.468899   
C16      C      0.103790000000     0.080990000000     0.685700000000     0.365676   
C17      C      0.045530000000     0.474650000000     0.994370000000     0.449407   
C18      C      0.092430000000     0.673730000000     0.014590000000     0.456283   
C19      C      0.987280000000     0.571470000000     0.075620000000     0.499558   
C20      C      0.157720000000     0.613760000000     0.949350000000     0.374694   
C21      C      0.222070000000     0.583910000000     0.030600000000     0.366002   
C22      C      0.056210000000     0.546150000000     0.157380000000     0.487787   
C23      C      0.107470000000     0.481710000000     0.097820000000     0.461121   
C24      C      0.200620000000     0.698050000000     0.084340000000     0.45505    
C25      C      0.897420000000     0.463510000000     0.528720000000     0.500819   
C26      C      0.079830000000     0.689760000000     0.528540000000     0.380787   
C27      C      0.962810000000     0.594340000000     0.586930000000     0.452613   
C28      C      0.997440000000     0.516860000000     0.442250000000     0.44533    
C29      C      0.096120000000     0.511670000000     0.508700000000     0.449505   
C30      C      0.052150000000     0.568680000000     0.649790000000     0.445543   
C31      C      0.965920000000     0.399030000000     0.562020000000     0.383344   
C32      C      0.150360000000     0.629100000000     0.554880000000     0.473184   
C33      C      0.517560000000     0.100610000000     0.048880000000     0.451734   
C34      C      0.619920000000     0.994960000000     0.078680000000     0.458887   
C35      C      0.602180000000     0.109370000000     0.968750000000     0.500181   
C36      C      0.516570000000     0.013630000000     0.140550000000     0.369773   
C37      C      0.630990000000     0.090000000000     0.197080000000     0.372499   
C38      C      0.727660000000     0.201750000000     0.019370000000     0.496407   
C39      C      0.609860000000     0.197970000000     0.123780000000     0.447585   
C40      C      0.730640000000     0.115530000000     0.111700000000     0.454409   
C41      C      0.434530000000     0.079360000000     0.518160000000     0.464989   
C42      C      0.501880000000     0.937200000000     0.525120000000     0.459789   
C43      C      0.516130000000     0.095620000000     0.453500000000     0.454016   
C44      C      0.439270000000     0.935480000000     0.597720000000     0.450191   
C45      C      0.525040000000     0.049490000000     0.661560000000     0.456618   
C46      C      0.634710000000     0.142860000000     0.518490000000     0.451202   
C47      C      0.508230000000     0.136100000000     0.614960000000     0.46103    
C48      C      0.630720000000     0.042000000000     0.548050000000     0.460126   
C49      C      0.533980000000     0.468760000000     0.002520000000     0.384807   
C50      C      0.672830000000     0.734210000000     0.051370000000     0.504426   
C51      C      0.549350000000     0.632270000000     0.062130000000     0.442494   
C52      C      0.608960000000     0.608480000000     0.943560000000     0.507634   
C53      C      0.712010000000     0.588610000000     0.979920000000     0.515216   
C54      C      0.582160000000     0.562070000000     0.147460000000     0.452772   
C55      C      0.605000000000     0.487840000000     0.089110000000     0.460782   
C56      C      0.750380000000     0.680140000000     0.089520000000     0.484664   
C57      C      0.433490000000     0.467590000000     0.494560000000     0.470842   
C58      C      0.547050000000     0.681820000000     0.481370000000     0.474595   
C59      C      0.432100000000     0.580950000000     0.567470000000     0.474257   
C60      C      0.551900000000     0.529600000000     0.439810000000     0.44835    
C61      C      0.640860000000     0.574830000000     0.534300000000     0.453241   
C62      C      0.524320000000     0.568830000000     0.640920000000     0.486998   
C63      C      0.514040000000     0.430530000000     0.559630000000     0.410838   
C64      C      0.639220000000     0.680980000000     0.560680000000     0.470703   
C65      C      0.564080000000     0.554060000000     0.706060000000     0.0190586  
C66      C      0.538520000000     0.568490000000     0.888970000000     0.0163513  
C67      C      0.621490000000     0.651800000000     0.873530000000     0.0206254  
C68      C      0.521560000000     0.581690000000     0.845100000000    -0.10297    
C69      C      0.591570000000     0.591710000000     0.742500000000    -0.102508   
C70      C      0.618470000000     0.627430000000     0.831090000000    -0.104762   
C71      C      0.552770000000     0.591050000000     0.771070000000     0.0190419  
C72      C      0.563520000000     0.598950000000     0.813630000000     0.0183155  
C73      C      0.487060000000     0.564150000000     0.708810000000     0.0177695  
C74      C      0.508930000000     0.595800000000     0.749470000000    -0.102171   
C75      C      0.606290000000     0.523010000000     0.209030000000     0.0141937  
C76      C      0.501630000000     0.509170000000     0.372150000000     0.0159863  
C77      C      0.559880000000     0.472200000000     0.390830000000     0.0142414  
C78      C      0.488330000000     0.475920000000     0.332670000000    -0.103068   
C79      C      0.602010000000     0.526610000000     0.256880000000    -0.101743   
C80      C      0.577620000000     0.485190000000     0.344750000000    -0.101578   
C81      C      0.547150000000     0.499820000000     0.271110000000     0.0172188  
C82      C      0.537570000000     0.486640000000     0.313440000000     0.0172129  
C83      C      0.515020000000     0.497380000000     0.193420000000     0.017156   
C84      C      0.506900000000     0.501330000000     0.240300000000    -0.102541   
C85      C      0.521650000000     0.721110000000     0.421300000000     0.0139682  
C86      C      0.480960000000     0.849010000000     0.547040000000     0.0205178  
C87      C      0.458990000000     0.867970000000     0.471880000000     0.0153484  
C88      C      0.515870000000     0.831530000000     0.531730000000    -0.102656   
C89      C      0.510050000000     0.765660000000     0.424680000000    -0.10085    
C90      C      0.458120000000     0.817360000000     0.462180000000    -0.102635   
C91      C      0.527680000000     0.793360000000     0.467690000000     0.020171   
C92      C      0.502290000000     0.814030000000     0.485500000000     0.0188561  
C93      C      0.599960000000     0.774900000000     0.467180000000     0.0211996  
C94      C      0.577910000000     0.802200000000     0.489570000000    -0.101191   
C95      C      0.464640000000     0.163320000000     0.663370000000     0.0155758  
C96      C      0.555090000000     0.381720000000     0.585410000000     0.0122106  
C97      C      0.465090000000     0.353560000000     0.605660000000     0.0135811  
C98      C      0.541860000000     0.325550000000     0.585150000000    -0.100783   
C99      C      0.452720000000     0.207190000000     0.653370000000    -0.103592   
C100     C      0.451340000000     0.296570000000     0.605380000000    -0.102144   
C101     C      0.500610000000     0.257670000000     0.642910000000     0.0214159  
C102     C      0.499010000000     0.292870000000     0.614570000000     0.01845    
C103     C      0.558620000000     0.221340000000     0.647700000000     0.0166209  
C104     C      0.549940000000     0.263720000000     0.663310000000    -0.104426   
C105     C      0.494850000000     0.063300000000     0.728420000000     0.0151224  
C106     C      0.564920000000     0.046620000000     0.910240000000     0.018924   
C107     C      0.550320000000     0.121340000000     0.908910000000     0.016037   
C108     C      0.583960000000     0.058500000000     0.865200000000    -0.10278    
C109     C      0.518450000000     0.095710000000     0.769220000000    -0.102582   
C110     C      0.559120000000     0.129700000000     0.860440000000    -0.10193    
C111     C      0.551070000000     0.078340000000     0.795850000000     0.016938   
C112     C      0.560040000000     0.085480000000     0.839060000000     0.0176462  
C113     C      0.582710000000     0.072690000000     0.725690000000     0.0178793  
C114     C      0.574430000000     0.053060000000     0.772020000000    -0.103661   
C115     C      0.533660000000     0.154510000000     0.390120000000     0.0150971  
C116     C      0.632040000000     0.063660000000     0.272590000000     0.0121592  
C117     C      0.660680000000     0.154980000000     0.253980000000     0.0154539  
C118     C      0.584550000000     0.055380000000     0.293980000000    -0.0995091  
C119     C      0.573010000000     0.157520000000     0.359560000000    -0.0990688  
C120     C      0.618630000000     0.154340000000     0.279020000000    -0.100232   
C121     C      0.560320000000     0.106300000000     0.339340000000     0.0146083  
C122     C      0.589590000000     0.106210000000     0.307670000000     0.0189463  
C123     C      0.480740000000     0.060300000000     0.382050000000     0.0125838  
C124     C      0.521110000000     0.055220000000     0.359970000000    -0.0953331  
C125     C      0.617860000000     0.921240000000     0.116710000000     0.0122374  
C126     C      0.670280000000     0.806420000000     0.011390000000     0.0156781  
C127     C      0.687140000000     0.808020000000     0.092210000000     0.019742   
C128     C      0.629960000000     0.822270000000     0.015550000000    -0.104903   
C129     C      0.590230000000     0.862330000000     0.117000000000    -0.101346   
C130     C      0.678920000000     0.854200000000     0.088230000000    -0.105865   
C131     C      0.591960000000     0.845840000000     0.073040000000     0.0177276  
C132     C      0.631050000000     0.840350000000     0.060280000000     0.0241643  
C133     C      0.584910000000     0.916300000000     0.036890000000     0.0128928  
C134     C      0.559380000000     0.857260000000     0.041390000000    -0.102158   
C135     C      0.657290000000     0.449000000000     0.110740000000     0.0155007  
C136     C      0.577550000000     0.229340000000     0.179110000000     0.015175   
C137     C      0.669000000000     0.277210000000     0.163600000000     0.0171806  
C138     C      0.572140000000     0.277300000000     0.170550000000    -0.0999074  
C139     C      0.668970000000     0.426420000000     0.151650000000    -0.102903   
C140     C      0.669780000000     0.327560000000     0.152250000000    -0.099914   
C141     C      0.622490000000     0.374620000000     0.162140000000     0.0188071  
C142     C      0.622310000000     0.328550000000     0.164360000000     0.0163672  
C143     C      0.564400000000     0.406370000000     0.130700000000     0.0127053  
C144     C      0.576070000000     0.379380000000     0.169120000000    -0.102385   
C145     C      0.835920000000     0.423980000000     0.467000000000     0.0196224  
C146     C      0.715880000000     0.204370000000     0.554820000000     0.0177523  
C147     C      0.712940000000     0.193250000000     0.476990000000     0.0121803  
C148     C      0.722300000000     0.257900000000     0.550910000000    -0.0982236  
C149     C      0.810080000000     0.364600000000     0.468840000000    -0.101627   
C150     C      0.732020000000     0.251660000000     0.469040000000    -0.0991393  
C151     C      0.776590000000     0.338000000000     0.507180000000     0.0184997  
C152     C      0.747560000000     0.284820000000     0.509470000000     0.0150337  
C153     C      0.805450000000     0.427620000000     0.536540000000     0.0178156  
C154     C      0.783370000000     0.370010000000     0.546490000000    -0.100583   
C155     C      0.404250000000     0.849590000000     0.634890000000     0.0120064  
C156     C      0.235740000000     0.693330000000     0.535410000000     0.014451   
C157     C      0.215390000000     0.662350000000     0.614120000000     0.0130564  
C158     C      0.292150000000     0.716630000000     0.548620000000    -0.10325    
C159     C      0.350090000000     0.805700000000     0.646340000000    -0.103631   
C160     C      0.273440000000     0.687840000000     0.624670000000    -0.103137   
C161     C      0.317610000000     0.782400000000     0.605900000000     0.0212007  
C162     C      0.301190000000     0.732950000000     0.594400000000     0.0202751  
C163     C      0.367260000000     0.860860000000     0.562360000000     0.0122855  
C164     C      0.314210000000     0.821380000000     0.575860000000    -0.103065   
C165     C      0.725970000000     0.601120000000     0.509540000000     0.0147338  
C166     C      0.902650000000     0.601840000000     0.631860000000     0.0175513  
C167     C      0.935130000000     0.657980000000     0.567740000000     0.0170166  
C168     C      0.846770000000     0.580100000000     0.616440000000    -0.100415   
C169     C      0.780980000000     0.628960000000     0.528610000000    -0.101499   
C170     C      0.881660000000     0.638560000000     0.547160000000    -0.100289   
C171     C      0.790240000000     0.601350000000     0.567290000000     0.0180173  
C172     C      0.838410000000     0.609290000000     0.578110000000     0.0170808  
C173     C      0.694270000000     0.546600000000     0.575950000000     0.0161108  
C174     C      0.747240000000     0.575030000000     0.598340000000    -0.102165   
C175     C      0.170500000000     0.526000000000     0.469350000000     0.0177187  
C176     C      0.347910000000     0.545350000000     0.599420000000     0.0191253  
C177     C      0.377560000000     0.619270000000     0.547990000000     0.016622   
C178     C      0.298320000000     0.512650000000     0.573040000000    -0.102102   
C179     C      0.223450000000     0.557320000000     0.491110000000    -0.102003   
C180     C      0.329800000000     0.590370000000     0.518410000000    -0.100434   
C181     C      0.235330000000     0.527100000000     0.526200000000     0.0176868  
C182     C      0.285150000000     0.544590000000     0.540620000000     0.0168781  
C183     C      0.138280000000     0.460120000000     0.527400000000     0.0175195  
C184     C      0.190990000000     0.484110000000     0.550960000000    -0.10093    
C185     C      0.066390000000     0.536450000000     0.720460000000     0.0127354  
C186     C      0.186630000000     0.659140000000     0.879400000000     0.010135   
C187     C      0.130350000000     0.562250000000     0.883900000000     0.0115364  
C188     C      0.158450000000     0.660270000000     0.836760000000    -0.100392   
C189     C      0.113440000000     0.551990000000     0.750510000000    -0.101481   
C190     C      0.098260000000     0.563080000000     0.844780000000    -0.100632   
C191     C      0.129040000000     0.602530000000     0.771750000000     0.0184792  
C192     C      0.130800000000     0.607930000000     0.815200000000     0.0184473  
C193     C      0.096020000000     0.631670000000     0.707580000000     0.0118468  
C194     C      0.141690000000     0.646360000000     0.739680000000    -0.101336   
C195     C      0.975240000000     0.459050000000     0.382070000000     0.0128896  
C196     C      0.061340000000     0.571970000000     0.231020000000     0.0163768  
C197     C      0.002830000000     0.478010000000     0.208560000000     0.0171173  
C198     C      0.065080000000     0.552570000000     0.276140000000    -0.104414   
C199     C      0.949890000000     0.449220000000     0.336850000000    -0.103039   
C200     C      0.007800000000     0.460100000000     0.254500000000    -0.105387   
C201     C      0.980230000000     0.497270000000     0.310130000000     0.0198765  
C202     C      0.017080000000     0.501970000000     0.284650000000     0.0234168  
C203     C      0.002930000000     0.555570000000     0.371270000000     0.0137015  
C204     C      0.978670000000     0.542890000000     0.326040000000    -0.102749   
C205     C      0.019020000000     0.392520000000     0.958610000000     0.00983996 
C206     C      0.791870000000     0.294440000000     0.011630000000     0.0161661  
C207     C      0.816850000000     0.226890000000     0.007100000000     0.0123979  
C208     C      0.826940000000     0.326150000000     0.975590000000    -0.102053   
C209     C      0.965870000000     0.346570000000     0.970260000000    -0.0960117  
C210     C      0.856300000000     0.259870000000     0.973940000000    -0.10089    
C211     C      0.920090000000     0.355700000000     0.964850000000     0.0123763  
C212     C      0.871550000000     0.316630000000     0.973910000000     0.0185953  
C213     C      0.980570000000     0.445320000000     0.935370000000     0.0182266  
C214     C      0.929550000000     0.410170000000     0.955160000000    -0.0983244  
C215     C      0.461510000000     0.929060000000     0.108390000000     0.0108216  
C216     C      0.253140000000     0.755870000000     0.143600000000     0.0145118  
C217     C      0.289880000000     0.764710000000     0.071430000000     0.0133894  
C218     C      0.282240000000     0.815150000000     0.147750000000    -0.103301   
C219     C      0.424570000000     0.874310000000     0.123560000000    -0.101633   
C220     C      0.319270000000     0.823470000000     0.075350000000    -0.101674   
C221     C      0.377300000000     0.871470000000     0.138930000000     0.0185497  
C222     C      0.329500000000     0.838640000000     0.121910000000     0.0180465  
C223     C      0.426660000000     0.963850000000     0.161630000000     0.00967381 
C224     C      0.387830000000     0.907700000000     0.175090000000    -0.102032   
C225     C      0.932190000000     0.607420000000     0.089120000000     0.0193053  
C226     C      0.742920000000     0.532820000000     0.954240000000     0.0173124  
C227     C      0.799000000000     0.627080000000     0.954300000000     0.0211378  
C228     C      0.778380000000     0.524780000000     0.987010000000    -0.0950776  
C229     C      0.908190000000     0.619040000000     0.048780000000    -0.103524   
C230     C      0.832700000000     0.627070000000     0.992290000000    -0.098197   
C231     C      0.863160000000     0.570470000000     0.028460000000     0.0210255  
C232     C      0.827690000000     0.574190000000     0.001420000000     0.0134665  
C233     C      0.893350000000     0.515370000000     0.071150000000     0.0257031  
C234     C      0.865070000000     0.520380000000     0.030870000000    -0.105006   
C235     C      0.521900000000     0.693610000000     0.082240000000     0.0123876  
C236     C      0.292750000000     0.567840000000     0.019320000000     0.00995908 
C237     C      0.304010000000     0.637070000000     0.069940000000     0.0111992  
C238     C      0.348260000000     0.606140000000     0.007800000000    -0.104549   
C239     C      0.466820000000     0.682610000000     0.087380000000    -0.100961   
C240     C      0.353040000000     0.636560000000     0.084710000000    -0.101726   
C241     C      0.433420000000     0.663710000000     0.046270000000     0.0193462  
C242     C      0.381130000000     0.637150000000     0.046240000000     0.0176188  
C243     C      0.493200000000     0.646430000000     0.011110000000     0.0119958  
C244     C      0.462020000000     0.673420000000     0.006030000000    -0.10411    
C245     C      0.914670000000     0.877970000000     0.596310000000     0.0154529  
C246     C      0.694110000000     0.728080000000     0.623080000000     0.0168516  
C247     C      0.732730000000     0.725920000000     0.555090000000     0.0138751  
C248     C      0.735410000000     0.784600000000     0.629880000000    -0.103737   
C249     C      0.877960000000     0.825450000000     0.616010000000    -0.103912   
C250     C      0.776400000000     0.781490000000     0.562290000000    -0.10167    
C251     C      0.830870000000     0.825050000000     0.628860000000     0.0195534  
C252     C      0.783680000000     0.796190000000     0.609070000000     0.0188653  
C253     C      0.879200000000     0.919190000000     0.642820000000     0.0136001  
C254     C      0.842640000000     0.865410000000     0.661700000000    -0.103212   
C255     C      0.181770000000     0.275620000000     0.521900000000     0.0131446  
C256     C      0.380110000000     0.383400000000     0.464470000000     0.0126686  
C257     C      0.352640000000     0.448960000000     0.456610000000     0.0138498  
C258     C      0.345470000000     0.354570000000     0.501720000000    -0.0988694  
C259     C      0.214360000000     0.334310000000     0.527760000000    -0.102968   
C260     C      0.299910000000     0.403680000000     0.469240000000    -0.0992476  
C261     C      0.269350000000     0.347940000000     0.535730000000     0.0192154  
C262     C      0.304250000000     0.369190000000     0.504710000000     0.0225919  
C263     C      0.245130000000     0.264430000000     0.573120000000     0.0118517  
C264     C      0.277150000000     0.323090000000     0.576280000000    -0.101847   
C265     C      0.904240000000     0.097240000000     0.569340000000     0.0141037  
C266     C      0.693430000000     0.043210000000     0.501600000000     0.0165222  
C267     C      0.721630000000     0.082980000000     0.574500000000     0.0131197  
C268     C      0.728030000000     0.020020000000     0.507330000000    -0.10379    
C269     C      0.869200000000     0.114140000000     0.546190000000    -0.102987   
C270     C      0.759730000000     0.063450000000     0.579690000000    -0.101892   
C271     C      0.822320000000     0.067960000000     0.527130000000     0.019851   
C272     C      0.773510000000     0.053490000000     0.536700000000     0.0185228  
C273     C      0.869790000000     0.021610000000     0.518470000000     0.0143879  
C274     C      0.834870000000     0.039500000000     0.495880000000    -0.103443   
C275     C      0.397540000000     0.132600000000     0.492200000000     0.0187771  
C276     C      0.229130000000     0.052520000000     0.607730000000     0.0107669  
C277     C      0.268780000000     0.145520000000     0.575220000000     0.0171335  
C278     C      0.283770000000     0.065740000000     0.622040000000    -0.101075   
C279     C      0.379020000000     0.145820000000     0.531520000000    -0.0995788  
C280     C      0.319470000000     0.156690000000     0.597140000000    -0.104484   
C281     C      0.340160000000     0.099290000000     0.558120000000     0.0199823  
C282     C      0.321460000000     0.108120000000     0.593350000000     0.0202763  
C283     C      0.342340000000     0.039640000000     0.504020000000     0.014775   
C284     C      0.325450000000     0.043910000000     0.547760000000    -0.0951338  
C285     C      0.104250000000     0.776530000000     0.552530000000     0.0118431  
C286     C      0.130620000000     0.964660000000     0.466150000000     0.0114366  
C287     C      0.126280000000     0.945640000000     0.545050000000     0.0189421  
C288     C      0.097480000000     0.905740000000     0.457420000000    -0.101544   
C289     C      0.142360000000     0.829970000000     0.535440000000    -0.101859   
C290     C      0.087540000000     0.889140000000     0.538040000000    -0.101249   
C291     C      0.118590000000     0.842100000000     0.496090000000     0.019395   
C292     C      0.099190000000     0.874240000000     0.496660000000     0.0174595  
C293     C      0.069780000000     0.749270000000     0.476160000000     0.00972893 
C294     C      0.105670000000     0.805170000000     0.460100000000    -0.102448   
C295     C      0.078600000000     0.238990000000     0.647800000000     0.0154844  
C296     C      0.934910000000     0.331130000000     0.619730000000     0.0131286  
C297     C      0.957780000000     0.314400000000     0.550090000000     0.0144599  
C298     C      0.970940000000     0.315880000000     0.644370000000    -0.100742   
C299     C      0.053050000000     0.259170000000     0.615500000000    -0.101012   
C300     C      0.000400000000     0.306830000000     0.570450000000    -0.099482   
C301     C      0.008920000000     0.259570000000     0.635370000000     0.0180737  
C302     C      0.989850000000     0.288780000000     0.616870000000     0.0160564  
C303     C      0.993630000000     0.180260000000     0.680600000000     0.0100769  
C304     C      0.990710000000     0.230460000000     0.677900000000    -0.101782   
C305     C      0.073780000000     0.012850000000     0.741300000000     0.0090785  
C306     C      0.098170000000     0.078960000000     0.915600000000     0.0150075  
C307     C      0.081930000000     0.986990000000     0.921230000000     0.0155243  
C308     C      0.082000000000     0.071480000000     0.868150000000    -0.104155   
C309     C      0.095670000000     0.996150000000     0.780380000000    -0.100227   
C310     C      0.063350000000     0.978840000000     0.873930000000    -0.104407   
C311     C      0.114480000000     0.037330000000     0.813610000000     0.0174695  
C312     C      0.089410000000     0.030120000000     0.850090000000     0.0222468  
C313     C      0.137170000000     0.107640000000     0.758630000000     0.00833833 
C314     C      0.156100000000     0.089430000000     0.798350000000    -0.0997542  
C315     C      0.172800000000     0.126510000000     0.264950000000     0.0203879  
C316     C      0.991160000000     0.014760000000     0.393820000000     0.0168607  
C317     C      0.032520000000     0.109460000000     0.394180000000     0.0149293  
C318     C      0.032760000000     0.015860000000     0.367720000000    -0.100789   
C319     C      0.131340000000     0.124940000000     0.291340000000    -0.101656   
C320     C      0.076940000000     0.117500000000     0.368060000000    -0.0981499  
C321     C      0.097090000000     0.072280000000     0.313000000000     0.0174289  
C322     C      0.067650000000     0.068510000000     0.346250000000     0.0154902  
C323     C      0.132910000000     0.031970000000     0.264830000000     0.0152607  
C324     C      0.088460000000     0.023380000000     0.291440000000    -0.0999132  
C325     C      0.813880000000     0.725340000000     0.147890000000     0.0170309  
C326     C      0.921660000000     0.918940000000     0.022720000000     0.0171481  
C327     C      0.892260000000     0.942500000000     0.083790000000     0.0167613  
C328     C      0.912940000000     0.867590000000     0.042350000000    -0.0998576  
C329     C      0.838520000000     0.784580000000     0.142420000000    -0.102856   
C330     C      0.874630000000     0.890070000000     0.106990000000    -0.0988629  
C331     C      0.871040000000     0.804780000000     0.103040000000     0.0228894  
C332     C      0.884090000000     0.851750000000     0.083940000000     0.0179613  
C333     C      0.841330000000     0.716360000000     0.076280000000     0.0164024  
C334     C      0.887940000000     0.768950000000     0.086980000000    -0.10318    
C335     C      0.459560000000     0.420250000000     0.045450000000     0.0181496  
C336     C      0.295090000000     0.200500000000     0.037140000000     0.0155153  
C337     C      0.311330000000     0.229900000000     0.114180000000     0.0174276  
C338     C      0.353450000000     0.229310000000     0.038240000000    -0.103756   
C339     C      0.405630000000     0.375990000000     0.038450000000    -0.105255   
C340     C      0.347880000000     0.284250000000     0.096550000000    -0.102454   
C341     C      0.405940000000     0.326200000000     0.034890000000     0.0200452  
C342     C      0.372530000000     0.282330000000     0.056190000000     0.0173408  
C343     C      0.493920000000     0.374000000000     0.005240000000     0.0113122  
C344     C      0.439630000000     0.326860000000     0.000820000000    -0.104298   
C345     C      0.955890000000     0.079050000000     0.184670000000     0.014368   
C346     C      0.819620000000     0.144530000000     0.095440000000     0.0169898  
C347     C      0.794490000000     0.131670000000     0.172020000000     0.0133799  
C348     C      0.845560000000     0.112720000000     0.103570000000    -0.102861   
C349     C      0.927870000000     0.106270000000     0.199680000000    -0.10302    
C350     C      0.823460000000     0.101870000000     0.182140000000    -0.101793   
C351     C      0.913430000000     0.130240000000     0.161610000000     0.0184883  
C352     C      0.864170000000     0.116590000000     0.149990000000     0.0189677  
C353     C      0.981000000000     0.136380000000     0.118120000000     0.0141161  
C354     C      0.957680000000     0.166150000000     0.134640000000    -0.102059   
C355     C      0.247330000000     0.065320000000     0.992250000000     0.0142317  
C356     C      0.426030000000     0.040450000000     0.057050000000     0.0131462  
C357     C      0.456820000000     0.122980000000     0.011770000000     0.00957034 
C358     C      0.377950000000     0.014030000000     0.027840000000    -0.102816   
C359     C      0.305340000000     0.087620000000     0.992740000000    -0.0984179  
C360     C      0.407170000000     0.095530000000     0.983510000000    -0.0987323  
C361     C      0.321940000000     0.054530000000     0.019080000000     0.016553   
C362     C      0.364880000000     0.053600000000     0.009650000000     0.017236   
C363     C      0.240370000000     0.015000000000     0.060120000000     0.0144343  
C364     C      0.298100000000     0.035680000000     0.062370000000    -0.101689   
C365     C      0.023610000000     0.837740000000     0.115720000000     0.0138093  
C366     C      0.132840000000     0.763910000000     0.991710000000     0.0195079  
C367     C      0.039510000000     0.709190000000     0.987150000000     0.0159203  
C368     C      0.132900000000     0.793810000000     0.030070000000    -0.0995064  
C369     C      0.024260000000     0.811870000000     0.074730000000    -0.0987692  
C370     C      0.032530000000     0.735160000000     0.025120000000    -0.101609   
C371     C      0.076460000000     0.818230000000     0.066410000000     0.0207574  
C372     C      0.080280000000     0.785670000000     0.039180000000     0.0193769  
C373     C      0.117470000000     0.888550000000     0.122920000000     0.0189652  
C374     C      0.124430000000     0.867660000000     0.081850000000    -0.100963   
C375     C      0.070200000000     0.392510000000     0.126550000000     0.0200945  
C376     C      0.166910000000     0.285890000000     0.027520000000     0.0167591  
C377     C      0.072680000000     0.238330000000     0.018020000000     0.011862   
C378     C      0.168100000000     0.322090000000     0.060710000000    -0.0990687  
C379     C      0.065960000000     0.357580000000     0.090730000000    -0.100936   
C380     C      0.067660000000     0.272040000000     0.050720000000    -0.0989294  
C381     C      0.116960000000     0.360990000000     0.083320000000     0.0197199  
C382     C      0.117750000000     0.321760000000     0.062820000000     0.0170157  
C383     C      0.163490000000     0.447430000000     0.124490000000     0.0181691  
C384     C      0.166750000000     0.412800000000     0.091720000000    -0.101565   
Co1      Co     0.138540000000     0.149120000000     0.124310000000     1.1365     
Co2      Co     0.091070000000     0.008020000000     0.070020000000     1.07589    
Co3      Co     0.130170000000     0.113410000000     0.028900000000     1.04462    
Co4      Co     0.056730000000     0.022360000000     0.140520000000     0.979189   
Co5      Co     0.111590000000     0.106420000000     0.516970000000     1.10313    
Co6      Co     0.029450000000     0.075650000000     0.615910000000     0.904813   
Co7      Co     0.010700000000     0.000660000000     0.542400000000     1.14502    
Co8      Co     0.106710000000     0.105540000000     0.616860000000     0.906865   
Co9      Co     0.138200000000     0.551490000000     0.031660000000     0.876321   
Co10     Co     0.098030000000     0.631730000000     0.100880000000     1.1444     
Co11     Co     0.031050000000     0.511410000000     0.067180000000     1.16591    
Co12     Co     0.149160000000     0.624700000000     0.017960000000     0.917391   
Co13     Co     0.997790000000     0.476740000000     0.527450000000     1.23311    
Co14     Co     0.055590000000     0.609610000000     0.564190000000     1.13887    
Co15     Co     0.970780000000     0.501480000000     0.597190000000     0.952206   
Co16     Co     0.068420000000     0.592760000000     0.493400000000     0.88929    
Co17     Co     0.575920000000     0.092400000000     0.116870000000     0.838663   
Co18     Co     0.662030000000     0.088090000000     0.032680000000     1.16488    
Co19     Co     0.627470000000     0.177060000000     0.042900000000     1.12879    
Co20     Co     0.627990000000     0.073180000000     0.127660000000     0.863883   
Co21     Co     0.455630000000     0.031600000000     0.584210000000     1.0918     
Co22     Co     0.546820000000     0.037790000000     0.497460000000     1.07515    
Co23     Co     0.545310000000     0.130630000000     0.540880000000     1.07916    
Co24     Co     0.547630000000     0.008980000000     0.597570000000     1.05947    
Co25     Co     0.613460000000     0.541070000000     0.016290000000     1.09603    
Co26     Co     0.649940000000     0.645430000000     0.103640000000     1.10392    
Co27     Co     0.553380000000     0.544610000000     0.063150000000     0.924142   
Co28     Co     0.688330000000     0.666490000000     0.006880000000     1.19139    
Co29     Co     0.540240000000     0.510020000000     0.527370000000     1.05082    
Co30     Co     0.536320000000     0.635960000000     0.566540000000     1.12479    
Co31     Co     0.473220000000     0.509650000000     0.572150000000     0.964506   
Co32     Co     0.580800000000     0.615120000000     0.485180000000     1.05229    
H1       H      0.616820000000     0.579660000000     0.760370000000     0.0441681  
H2       H      0.509620000000     0.561190000000     0.912510000000     0.0362142  
H3       H      0.460360000000     0.523060000000     0.717690000000     0.0241902  
H4       H      0.476960000000     0.584140000000     0.770790000000     0.0425156  
H5       H      0.512830000000     0.613090000000     0.848480000000     0.048738   
H6       H      0.643220000000     0.658860000000     0.808590000000     0.0433307  
H7       H      0.593110000000     0.557760000000     0.684020000000     0.0321484  
H8       H      0.540160000000     0.532500000000     0.886350000000     0.039979   
H9       H      0.523980000000     0.637240000000     0.740760000000     0.0503628  
H10      H      0.632880000000     0.599990000000     0.836030000000     0.0528359  
H11      H      0.464400000000     0.578510000000     0.689630000000     0.0311247  
H12      H      0.608270000000     0.680270000000     0.869010000000     0.0276203  
H13      H      0.615720000000     0.631470000000     0.729280000000     0.0510097  
H14      H      0.486140000000     0.546450000000     0.833720000000     0.0448602  
H15      H      0.662380000000     0.673180000000     0.884920000000     0.0306038  
H16      H      0.543500000000     0.513550000000     0.718650000000     0.0295295  
H17      H      0.624190000000     0.510200000000     0.273530000000     0.0419879  
H18      H      0.517900000000     0.550320000000     0.361620000000     0.0349897  
H19      H      0.503720000000     0.456840000000     0.186540000000     0.0248674  
H20      H      0.468260000000     0.468130000000     0.246480000000     0.0420476  
H21      H      0.463400000000     0.485080000000     0.311250000000     0.0429298  
H22      H      0.613090000000     0.523780000000     0.344940000000     0.048096   
H23      H      0.646240000000     0.551540000000     0.200920000000     0.0391908  
H24      H      0.465790000000     0.497060000000     0.388630000000     0.0389146  
H25      H      0.507080000000     0.537950000000     0.244840000000     0.0495756  
H26      H      0.586680000000     0.455890000000     0.334560000000     0.0427728  
H27      H      0.489000000000     0.506830000000     0.173530000000     0.0316163  
H28      H      0.593160000000     0.478980000000     0.412500000000     0.0385938  
H29      H      0.620830000000     0.568090000000     0.265250000000     0.0482562  
H30      H      0.465690000000     0.434280000000     0.341800000000     0.0501526  
H31      H      0.530160000000     0.430660000000     0.393850000000     0.0332729  
H32      H      0.599720000000     0.484240000000     0.202040000000     0.0301148  
H33      H      0.529340000000     0.794920000000     0.398940000000     0.0446778  
H34      H      0.441880000000     0.815020000000     0.550090000000     0.023379   
H35      H      0.618620000000     0.797150000000     0.437800000000     0.0218809  
H36      H      0.606430000000     0.844280000000     0.490150000000     0.0431555  
H37      H      0.512020000000     0.799110000000     0.553050000000     0.0439034  
H38      H      0.421580000000     0.783610000000     0.472390000000     0.0452508  
H39      H      0.485180000000     0.683350000000     0.422620000000     0.0322475  
H40      H      0.494680000000     0.865440000000     0.579460000000     0.0313017  
H41      H      0.571680000000     0.786960000000     0.523010000000     0.054893   
H42      H      0.458960000000     0.816070000000     0.426920000000     0.0422421  
H43      H      0.629940000000     0.772740000000     0.488120000000     0.0304812  
H44      H      0.419700000000     0.861810000000     0.467520000000     0.0289799  
H45      H      0.468180000000     0.748410000000     0.418610000000     0.0431173  
H46      H      0.555880000000     0.864370000000     0.534680000000     0.0538459  
H47      H      0.483180000000     0.897980000000     0.448130000000     0.0296575  
H48      H      0.537770000000     0.723780000000     0.389830000000     0.0254903  
H49      H      0.424930000000     0.195270000000     0.625550000000     0.0482162  
H50      H      0.574900000000     0.398960000000     0.616530000000     0.0280133  
H51      H      0.578460000000     0.235400000000     0.617100000000     0.0274066  
H52      H      0.583820000000     0.302620000000     0.658490000000     0.0430345  
H53      H      0.577000000000     0.323530000000     0.592420000000     0.0425923  
H54      H      0.422320000000     0.274980000000     0.629610000000     0.0414143  
H55      H      0.472730000000     0.161950000000     0.698400000000     0.0218529  
H56      H      0.582720000000     0.402760000000     0.560020000000     0.0421946  
H57      H      0.545920000000     0.258970000000     0.698520000000     0.0475125  
H58      H      0.434040000000     0.279970000000     0.573510000000     0.0468476  
H59      H      0.583960000000     0.214990000000     0.671340000000     0.0296962  
H60      H      0.474550000000     0.367680000000     0.639040000000     0.0304482  
H61      H      0.434740000000     0.212330000000     0.681020000000     0.0425883  
H62      H      0.528500000000     0.310790000000     0.552160000000     0.0522747  
H63      H      0.430790000000     0.355450000000     0.593500000000     0.0275142  
H64      H      0.430080000000     0.125630000000     0.655220000000     0.0315518  
H65      H      0.542450000000     0.137230000000     0.760140000000     0.0494227  
H66      H      0.523010000000     0.018770000000     0.909320000000     0.0273783  
H67      H      0.610340000000     0.115010000000     0.724570000000     0.0328837  
H68      H      0.612470000000     0.062480000000     0.786630000000     0.0429914  
H69      H      0.573670000000     0.020900000000     0.851240000000     0.0425772  
H70      H      0.529630000000     0.137560000000     0.845320000000     0.0417362  
H71      H      0.465800000000     0.023080000000     0.737560000000     0.0297599  
H72      H      0.583600000000     0.027160000000     0.928050000000     0.0355045  
H73      H      0.548690000000     0.010390000000     0.772820000000     0.0495005  
H74      H      0.596780000000     0.165190000000     0.855870000000     0.0492546  
H75      H      0.599830000000     0.052900000000     0.710040000000     0.0311227  
H76      H      0.508580000000     0.097460000000     0.913680000000     0.0248369  
H77      H      0.486310000000     0.090810000000     0.787770000000     0.0422392  
H78      H      0.626270000000     0.083660000000     0.866440000000     0.0503585  
H79      H      0.563790000000     0.159580000000     0.923220000000     0.0318374  
H80      H      0.475070000000     0.080150000000     0.708460000000     0.0296809  
H81      H      0.576910000000     0.186450000000     0.334320000000     0.041841   
H82      H      0.664550000000     0.076710000000     0.296710000000     0.0262447  
H83      H      0.456670000000     0.067700000000     0.357700000000     0.0276332  
H84      H      0.500500000000     0.024810000000     0.335580000000     0.0424468  
H85      H      0.578940000000     0.029050000000     0.321920000000     0.0419516  
H86      H      0.637750000000     0.190290000000     0.297790000000     0.0415925  
H87      H      0.552930000000     0.186320000000     0.413500000000     0.0322748  
H88      H      0.624780000000     0.026400000000     0.259990000000     0.0393911  
H89      H      0.541210000000     0.042190000000     0.383830000000     0.0416986  
H90      H      0.590400000000     0.156390000000     0.255810000000     0.0581768  
H91      H      0.454590000000     0.023410000000     0.398770000000     0.039274   
H92      H      0.695620000000     0.168230000000     0.275370000000     0.0247848  
H93      H      0.610430000000     0.172770000000     0.377670000000     0.049044   
H94      H      0.550810000000     0.035820000000     0.271260000000     0.0562789  
H95      H      0.671350000000     0.183800000000     0.227170000000     0.0404204  
H96      H      0.504950000000     0.161030000000     0.371330000000     0.0246834  
H97      H      0.606090000000     0.846790000000     0.142560000000     0.0423455  
H98      H      0.659190000000     0.781210000000     0.983170000000     0.0368138  
H99      H      0.617680000000     0.930570000000     0.015800000000     0.0255807  
H100     H      0.553980000000     0.839990000000     0.009610000000     0.0408697  
H101     H      0.591750000000     0.788060000000     0.008020000000     0.0496013  
H102     H      0.679440000000     0.867390000000     0.120660000000     0.0439485  
H103     H      0.608380000000     0.932940000000     0.146350000000     0.044464   
H104     H      0.707770000000     0.841380000000     0.004960000000     0.0225465  
H105     H      0.520430000000     0.841220000000     0.053430000000     0.0465511  
H106     H      0.712010000000     0.887030000000     0.072530000000     0.049026   
H107     H      0.556560000000     0.925310000000     0.020620000000     0.0365843  
H108     H      0.661470000000     0.780900000000     0.116850000000     0.029532   
H109     H      0.549780000000     0.846890000000     0.124940000000     0.0476297  
H110     H      0.636750000000     0.853570000000     0.991740000000     0.0451005  
H111     H      0.727380000000     0.821440000000     0.103400000000     0.0238589  
H112     H      0.659840000000     0.936840000000     0.118080000000     0.0320168  
H113     H      0.704320000000     0.425630000000     0.147160000000     0.0427575  
H114     H      0.587230000000     0.226940000000     0.213690000000     0.0252942  
H115     H      0.544800000000     0.377910000000     0.104780000000     0.0274454  
H116     H      0.540670000000     0.342120000000     0.174600000000     0.0419487  
H117     H      0.552610000000     0.279780000000     0.198300000000     0.0420293  
H118     H      0.704450000000     0.357910000000     0.169480000000     0.0419654  
H119     H      0.690990000000     0.488170000000     0.105580000000     0.0417106  
H120     H      0.540130000000     0.194050000000     0.171690000000     0.0397026  
H121     H      0.584000000000     0.402090000000     0.198380000000     0.0470651  
H122     H      0.674100000000     0.335030000000     0.117230000000     0.0512687  
H123     H      0.537100000000     0.417610000000     0.140980000000     0.0329341  
H124     H      0.678890000000     0.276350000000     0.198370000000     0.0244994  
H125     H      0.677840000000     0.453180000000     0.178390000000     0.0510513  
H126     H      0.546920000000     0.270630000000     0.141290000000     0.0499005  
H127     H      0.699280000000     0.275970000000     0.146500000000     0.0398237  
H128     H      0.652620000000     0.424850000000     0.083080000000     0.0323226  
H129     H      0.787050000000     0.350240000000     0.438360000000     0.0424804  
H130     H      0.754260000000     0.207950000000     0.556750000000     0.0244767  
H131     H      0.775940000000     0.433870000000     0.518870000000     0.0249746  
H132     H      0.746010000000     0.355900000000     0.560990000000     0.0421287  
H133     H      0.745590000000     0.278790000000     0.579730000000     0.0435258  
H134     H      0.764420000000     0.266330000000     0.447650000000     0.0423085  
H135     H      0.869840000000     0.440780000000     0.446960000000     0.0390161  
H136     H      0.697340000000     0.184750000000     0.585030000000     0.0435935  
H137     H      0.809580000000     0.365640000000     0.570580000000     0.0518966  
H138     H      0.700970000000     0.255210000000     0.451310000000     0.0467809  
H139     H      0.815930000000     0.449610000000     0.566670000000     0.0326328  
H140     H      0.746350000000     0.187340000000     0.479220000000     0.0254341  
H141     H      0.840560000000     0.354320000000     0.470080000000     0.0583994  
H142     H      0.684440000000     0.255140000000     0.551420000000     0.0534514  
H143     H      0.688050000000     0.170760000000     0.449240000000     0.0308528  
H144     H      0.808960000000     0.434940000000     0.450760000000     0.024283   
H145     H      0.354050000000     0.776630000000     0.666980000000     0.0424138  
H146     H      0.226710000000     0.724710000000     0.529400000000     0.0316088  
H147     H      0.381640000000     0.841950000000     0.542390000000     0.0308959  
H148     H      0.288600000000     0.804240000000     0.547220000000     0.0457843  
H149     H      0.316200000000     0.749000000000     0.526600000000     0.0426842  
H150     H      0.281470000000     0.699270000000     0.658720000000     0.0421131  
H151     H      0.423750000000     0.871920000000     0.664320000000     0.0312651  
H152     H      0.229130000000     0.673730000000     0.504460000000     0.0306237  
H153     H      0.298300000000     0.841320000000     0.592950000000     0.0505294  
H154     H      0.285690000000     0.659140000000     0.620640000000     0.0483133  
H155     H      0.363390000000     0.889930000000     0.541570000000     0.044305   
H156     H      0.201600000000     0.686390000000     0.627760000000     0.0359828  
H157     H      0.331700000000     0.821850000000     0.665030000000     0.04822    
H158     H      0.303180000000     0.686820000000     0.545510000000     0.0464481  
H159     H      0.196090000000     0.623840000000     0.630570000000     0.0367534  
H160     H      0.426340000000     0.831950000000     0.625010000000     0.0253783  
H161     H      0.804910000000     0.632890000000     0.501830000000     0.0424702  
H162     H      0.915020000000     0.636310000000     0.651760000000     0.0254233  
H163     H      0.688400000000     0.510820000000     0.561320000000     0.0311031  
H164     H      0.749820000000     0.545200000000     0.618850000000     0.0424115  
H165     H      0.827210000000     0.581290000000     0.644680000000     0.0420276  
H166     H      0.881770000000     0.673490000000     0.533470000000     0.0416052  
H167     H      0.721400000000     0.629650000000     0.488520000000     0.0326751  
H168     H      0.905830000000     0.572680000000     0.653080000000     0.0345951  
H169     H      0.749420000000     0.604930000000     0.619370000000     0.0503374  
H170     H      0.875530000000     0.612460000000     0.520610000000     0.0550685  
H171     H      0.665900000000     0.534640000000     0.601040000000     0.0395793  
H172     H      0.946260000000     0.692420000000     0.587290000000     0.0253512  
H173     H      0.791820000000     0.668490000000     0.538080000000     0.0453917  
H174     H      0.830480000000     0.539090000000     0.607490000000     0.0520883  
H175     H      0.963080000000     0.671120000000     0.542210000000     0.0406475  
H176     H      0.720370000000     0.569320000000     0.488940000000     0.0307582  
H177     H      0.250920000000     0.570160000000     0.465250000000     0.0422924  
H178     H      0.341290000000     0.567260000000     0.623360000000     0.0227773  
H179     H      0.133930000000     0.429780000000     0.505640000000     0.0247092  
H180     H      0.197620000000     0.451380000000     0.558690000000     0.041152   
H181     H      0.268630000000     0.492100000000     0.596810000000     0.0423676  
H182     H      0.320030000000     0.619880000000     0.506400000000     0.0408768  
H183     H      0.162380000000     0.552140000000     0.448240000000     0.0344504  
H184     H      0.358600000000     0.519310000000     0.617840000000     0.032024   
H185     H      0.189070000000     0.500420000000     0.581410000000     0.0530787  
H186     H      0.339450000000     0.575650000000     0.490740000000     0.0519326  
H187     H      0.108210000000     0.440170000000     0.551090000000     0.0382336  
H188     H      0.371120000000     0.642200000000     0.571060000000     0.0227961  
H189     H      0.226560000000     0.591910000000     0.505540000000     0.0540535  
H190     H      0.301740000000     0.483370000000     0.555400000000     0.0540594  
H191     H      0.409920000000     0.647220000000     0.528490000000     0.035641   
H192     H      0.169970000000     0.496910000000     0.448300000000     0.02531    
H193     H      0.107150000000     0.519730000000     0.772750000000     0.0430304  
H194     H      0.222610000000     0.660240000000     0.872490000000     0.0304057  
H195     H      0.065380000000     0.633510000000     0.723580000000     0.0309961  
H196     H      0.150460000000     0.682930000000     0.754430000000     0.0429811  
H197     H      0.188080000000     0.690630000000     0.816510000000     0.0426957  
H198     H      0.078620000000     0.524600000000     0.830070000000     0.0436089  
H199     H      0.058770000000     0.501480000000     0.703310000000     0.0367999  
H200     H      0.197280000000     0.694870000000     0.896860000000     0.0421389  
H201     H      0.175640000000     0.654060000000     0.722250000000     0.048603   
H202     H      0.067290000000     0.568740000000     0.855520000000     0.0558742  
H203     H      0.109650000000     0.661680000000     0.681620000000     0.0434725  
H204     H      0.159990000000     0.553980000000     0.874090000000     0.0314088  
H205     H      0.145450000000     0.558140000000     0.731040000000     0.0518039  
H206     H      0.130070000000     0.671940000000     0.842790000000     0.0522418  
H207     H      0.104510000000     0.529620000000     0.904960000000     0.0479604  
H208     H      0.032700000000     0.525840000000     0.739490000000     0.0258446  
H209     H      0.947700000000     0.414160000000     0.324530000000     0.0429217  
H210     H      0.033630000000     0.585950000000     0.229670000000     0.0237243  
H211     H      0.045230000000     0.576190000000     0.369740000000     0.0232114  
H212     H      0.997170000000     0.577350000000     0.304480000000     0.0434014  
H213     H      0.073840000000     0.582700000000     0.299670000000     0.0444958  
H214     H      0.972690000000     0.422660000000     0.260540000000     0.0429366  
H215     H      0.949120000000     0.426490000000     0.403130000000     0.040427   
H216     H      0.099650000000     0.605640000000     0.224420000000     0.0346888  
H217     H      0.938060000000     0.532730000000     0.326860000000     0.0495232  
H218     H      0.040650000000     0.453350000000     0.257560000000     0.0509501  
H219     H      0.992640000000     0.582620000000     0.384580000000     0.035323   
H220     H      0.965570000000     0.476690000000     0.203610000000     0.0279439  
H221     H      0.910010000000     0.441120000000     0.338330000000     0.0485745  
H222     H      0.098030000000     0.545950000000     0.278780000000     0.0526554  
H223     H      0.002690000000     0.449930000000     0.186550000000     0.0305636  
H224     H      0.011570000000     0.458500000000     0.381510000000     0.0363965  
H225     H      0.958470000000     0.313760000000     0.950190000000     0.0410457  
H226     H      0.812060000000     0.309230000000     0.043180000000     0.0278315  
H227     H      0.979310000000     0.433050000000     0.902140000000     0.0236816  
H228     H      0.899530000000     0.408880000000     0.932050000000     0.0427932  
H229     H      0.839210000000     0.367020000000     0.981610000000     0.0419957  
H230     H      0.889080000000     0.253660000000     0.980630000000     0.0412486  
H231     H      0.049500000000     0.391500000000     0.979650000000     0.0357688  
H232     H      0.758440000000     0.300300000000     0.008850000000     0.030903   
H233     H      0.928360000000     0.427430000000     0.985340000000     0.0535617  
H234     H      0.839790000000     0.244730000000     0.941540000000     0.0490488  
H235     H      0.988310000000     0.485800000000     0.932940000000     0.0394943  
H236     H      0.836870000000     0.233520000000     0.039150000000     0.024192   
H237     H      0.968720000000     0.335440000000     0.004280000000     0.0411501  
H238     H      0.804760000000     0.315490000000     0.944410000000     0.0498949  
H239     H      0.801200000000     0.185710000000     0.999100000000     0.0328452  
H240     H      0.026640000000     0.388160000000     0.925280000000     0.027298   
H241     H      0.416790000000     0.846330000000     0.098260000000     0.0427139  
H242     H      0.275030000000     0.739700000000     0.161350000000     0.0306835  
H243     H      0.406900000000     0.978870000000     0.139420000000     0.0299054  
H244     H      0.352800000000     0.907040000000     0.184170000000     0.0424936  
H245     H      0.291510000000     0.823810000000     0.182300000000     0.0425548  
H246     H      0.354160000000     0.840620000000     0.056720000000     0.0436907  
H247     H      0.497350000000     0.929910000000     0.101330000000     0.0470893  
H248     H      0.216100000000     0.740420000000     0.159080000000     0.028912   
H249     H      0.403590000000     0.895990000000     0.203660000000     0.048815   
H250     H      0.295290000000     0.838690000000     0.060080000000     0.049943   
H251     H      0.439880000000     0.987770000000     0.190820000000     0.0369389  
H252     H      0.315700000000     0.749650000000     0.081800000000     0.0272778  
H253     H      0.443340000000     0.864150000000     0.150910000000     0.0509103  
H254     H      0.257300000000     0.830650000000     0.135600000000     0.0466552  
H255     H      0.278740000000     0.755450000000     0.037070000000     0.0433035  
H256     H      0.445880000000     0.937370000000     0.077920000000     0.0330817  
H257     H      0.896510000000     0.646540000000     0.058160000000     0.0412167  
H258     H      0.753980000000     0.531470000000     0.921390000000     0.0247512  
H259     H      0.868130000000     0.504150000000     0.098630000000     0.0210911  
H260     H      0.826370000000     0.485510000000     0.030750000000     0.0423491  
H261     H      0.787820000000     0.497870000000     0.972340000000     0.0421617  
H262     H      0.872740000000     0.657020000000     0.985790000000     0.0412735  
H263     H      0.968450000000     0.642600000000     0.099050000000     0.0256775  
H264     H      0.702890000000     0.500450000000     0.956750000000     0.0429099  
H265     H      0.884490000000     0.519250000000     0.002440000000     0.0552084  
H266     H      0.820720000000     0.637710000000     0.020790000000     0.0531962  
H267     H      0.901330000000     0.483440000000     0.067620000000     0.0214702  
H268     H      0.814160000000     0.623190000000     0.924190000000     0.0231451  
H269     H      0.937480000000     0.638470000000     0.024670000000     0.0476659  
H270     H      0.756430000000     0.505400000000     0.015910000000     0.0518781  
H271     H      0.799640000000     0.664510000000     0.951750000000     0.0293248  
H272     H      0.906000000000     0.596220000000     0.115870000000     0.0249059  
H273     H      0.449520000000     0.652460000000     0.112930000000     0.0490479  
H274     H      0.270390000000     0.549170000000     0.989370000000     0.0403921  
H275     H      0.466340000000     0.604130000000     0.007720000000     0.0391007  
H276     H      0.437330000000     0.660610000000     0.976290000000     0.0443528  
H277     H      0.348170000000     0.633220000000     0.982280000000     0.0532962  
H278     H      0.376680000000     0.670910000000     0.104930000000     0.0426812  
H279     H      0.545630000000     0.733340000000     0.069120000000     0.0294159  
H280     H      0.291530000000     0.537050000000     0.041370000000     0.0301667  
H281     H      0.488260000000     0.715760000000     0.001930000000     0.0472229  
H282     H      0.343260000000     0.601290000000     0.104570000000     0.0504209  
H283     H      0.520290000000     0.659840000000     0.984840000000     0.0367046  
H284     H      0.314630000000     0.674820000000     0.053810000000     0.0366758  
H285     H      0.468660000000     0.718420000000     0.097790000000     0.0415325  
H286     H      0.364140000000     0.583470000000     0.995180000000     0.0470704  
H287     H      0.282810000000     0.633430000000     0.098760000000     0.0405866  
H288     H      0.538900000000     0.692070000000     0.114440000000     0.0335764  
H289     H      0.869800000000     0.793700000000     0.594440000000     0.0420768  
H290     H      0.704740000000     0.702240000000     0.641990000000     0.0285973  
H291     H      0.857850000000     0.929930000000     0.618220000000     0.0320503  
H292     H      0.808550000000     0.865880000000     0.671600000000     0.0430243  
H293     H      0.741360000000     0.789820000000     0.665030000000     0.0423325  
H294     H      0.811120000000     0.786240000000     0.548420000000     0.0412411  
H295     H      0.951080000000     0.878620000000     0.592110000000     0.0284977  
H296     H      0.658440000000     0.722870000000     0.635850000000     0.0326629  
H297     H      0.861140000000     0.858150000000     0.690900000000     0.0498302  
H298     H      0.766650000000     0.808080000000     0.543630000000     0.0496057  
H299     H      0.892710000000     0.947420000000     0.669150000000     0.0390408  
H300     H      0.745450000000     0.698790000000     0.567580000000     0.0275301  
H301     H      0.897170000000     0.819260000000     0.645280000000     0.0510786  
H302     H      0.721880000000     0.810600000000     0.615890000000     0.0491152  
H303     H      0.724500000000     0.720150000000     0.520050000000     0.0318463  
H304     H      0.899020000000     0.881750000000     0.564080000000     0.0143013  
H305     H      0.207480000000     0.353680000000     0.499240000000     0.0422007  
H306     H      0.414300000000     0.378730000000     0.466720000000     0.0361787  
H307     H      0.263500000000     0.251510000000     0.551100000000     0.0241093  
H308     H      0.317740000000     0.335220000000     0.584260000000     0.04325    
H309     H      0.370150000000     0.364970000000     0.531550000000     0.0513615  
H310     H      0.277720000000     0.421310000000     0.479050000000     0.0436936  
H311     H      0.140880000000     0.264960000000     0.520770000000     0.035369   
H312     H      0.359300000000     0.367080000000     0.433410000000     0.0255832  
H313     H      0.264230000000     0.335330000000     0.603490000000     0.0506094  
H314     H      0.279530000000     0.379480000000     0.440880000000     0.0445723  
H315     H      0.245930000000     0.247830000000     0.605520000000     0.0404671  
H316     H      0.360380000000     0.484810000000     0.472490000000     0.0380022  
H317     H      0.201590000000     0.345370000000     0.555790000000     0.0478727  
H318     H      0.327260000000     0.312250000000     0.497130000000     0.0428296  
H319     H      0.351100000000     0.456610000000     0.421630000000     0.0242132  
H320     H      0.189710000000     0.265510000000     0.490730000000     0.0267112  
H321     H      0.861050000000     0.137060000000     0.567610000000     0.0435344  
H322     H      0.713120000000     0.080560000000     0.483460000000     0.0271245  
H323     H      0.847150000000     0.988730000000     0.540690000000     0.0298     
H324     H      0.801010000000     0.004300000000     0.482870000000     0.0420256  
H325     H      0.738820000000     0.017970000000     0.474680000000     0.0421017  
H326     H      0.792930000000     0.090370000000     0.600200000000     0.0432403  
H327     H      0.940580000000     0.133150000000     0.578080000000     0.0410689  
H328     H      0.659520000000     0.016000000000     0.481530000000     0.0328875  
H329     H      0.854480000000     0.065760000000     0.468510000000     0.0498111  
H330     H      0.741340000000     0.026050000000     0.597790000000     0.0492448  
H331     H      0.883650000000     0.007230000000     0.493450000000     0.0318972  
H332     H      0.742230000000     0.123850000000     0.563180000000     0.0288329  
H333     H      0.890130000000     0.141170000000     0.519590000000     0.0513533  
H334     H      0.706650000000     0.980190000000     0.521130000000     0.0497291  
H335     H      0.707120000000     0.081720000000     0.606460000000     0.0348081  
H336     H      0.886880000000     0.076260000000     0.599500000000     0.0331942  
H337     H      0.413100000000     0.169910000000     0.552750000000     0.0535914  
H338     H      0.216510000000     0.025320000000     0.581040000000     0.0252336  
H339     H      0.339720000000     0.001560000000     0.501040000000     0.0375627  
H340     H      0.343550000000     0.029850000000     0.572720000000     0.0429264  
H341     H      0.287030000000     0.030480000000     0.623170000000     0.0409789  
H342     H      0.351700000000     0.191690000000     0.583020000000     0.0394688  
H343     H      0.372840000000     0.130530000000     0.463590000000     0.0235847  
H344     H      0.203550000000     0.032370000000     0.634580000000     0.0362531  
H345     H      0.283340000000     0.017960000000     0.548010000000     0.0426219  
H346     H      0.320240000000     0.165510000000     0.631350000000     0.0505485  
H347     H      0.316140000000     0.041650000000     0.478400000000     0.025822   
H348     H      0.269830000000     0.141950000000     0.540150000000     0.0308008  
H349     H      0.362350000000     0.169890000000     0.519700000000     0.0422346  
H350     H      0.291850000000     0.079670000000     0.655460000000     0.0483635  
H351     H      0.264160000000     0.179180000000     0.580450000000     0.0333759  
H352     H      0.436950000000     0.163800000000     0.485090000000     0.0314969  
H353     H      0.155960000000     0.859450000000     0.560620000000     0.0427656  
H354     H      0.171710000000     0.976720000000     0.465040000000     0.026979   
H355     H      0.030740000000     0.743160000000     0.478650000000     0.0304229  
H356     H      0.086630000000     0.813270000000     0.431820000000     0.0423387  
H357     H      0.111670000000     0.897610000000     0.428760000000     0.0418396  
H358     H      0.087370000000     0.865340000000     0.566300000000     0.0456806  
H359     H      0.123660000000     0.768010000000     0.580370000000     0.0428273  
H360     H      0.122200000000     0.986660000000     0.440490000000     0.0278925  
H361     H      0.141500000000     0.808500000000     0.449640000000     0.0485749  
H362     H      0.048500000000     0.883830000000     0.534740000000     0.0580414  
H363     H      0.067490000000     0.722770000000     0.451410000000     0.0370044  
H364     H      0.165330000000     0.950940000000     0.546770000000     0.0220003  
H365     H      0.176940000000     0.829610000000     0.526290000000     0.0506924  
H366     H      0.057210000000     0.895630000000     0.450070000000     0.0463372  
H367     H      0.120700000000     0.958060000000     0.576160000000     0.0398582  
H368     H      0.070450000000     0.776440000000     0.564260000000     0.029209   
H369     H      0.082260000000     0.298940000000     0.605410000000     0.0440517  
H370     H      0.895890000000     0.296550000000     0.617170000000     0.0242485  
H371     H      0.993210000000     0.167750000000     0.714630000000     0.0325631  
H372     H      0.014700000000     0.256280000000     0.704450000000     0.0473397  
H373     H      0.950890000000     0.292280000000     0.672600000000     0.0418179  
H374     H      0.002350000000     0.277890000000     0.551090000000     0.0448303  
H375     H      0.111720000000     0.240420000000     0.633310000000     0.0465777  
H376     H      0.932000000000     0.360060000000     0.638330000000     0.0324392  
H377     H      0.950270000000     0.218850000000     0.682270000000     0.0426852  
H378     H      0.037420000000     0.343850000000     0.569040000000     0.0532343  
H379     H      0.958820000000     0.149560000000     0.663520000000     0.0381136  
H380     H      0.921300000000     0.276640000000     0.548650000000     0.0262561  
H381     H      0.038730000000     0.233860000000     0.587140000000     0.0605869  
H382     H      0.005050000000     0.351700000000     0.656620000000     0.0526486  
H383     H      0.966770000000     0.328420000000     0.516530000000     0.0445879  
H384     H      0.094480000000     0.264480000000     0.676060000000     0.0277249  
H385     H      0.065390000000     0.957610000000     0.791510000000     0.0434963  
H386     H      0.140650000000     0.100670000000     0.919080000000     0.0180723  
H387     H      0.111140000000     0.120840000000     0.768390000000     0.0322614  
H388     H      0.171590000000     0.119060000000     0.823560000000     0.0428689  
H389     H      0.102150000000     0.109250000000     0.850970000000     0.0453949  
H390     H      0.072350000000     0.950490000000     0.861500000000     0.044016   
H391     H      0.065070000000     0.985130000000     0.715340000000     0.0442446  
H392     H      0.084330000000     0.103420000000     0.928320000000     0.0287497  
H393     H      0.188780000000     0.085370000000     0.789640000000     0.0502074  
H394     H      0.021260000000     0.962290000000     0.871080000000     0.0513339  
H395     H      0.171060000000     0.141600000000     0.744830000000     0.0432145  
H396     H      0.122320000000     0.995960000000     0.924340000000     0.0339296  
H397     H      0.128080000000     0.992120000000     0.770840000000     0.050626   
H398     H      0.040620000000     0.058660000000     0.864470000000     0.05389    
H399     H      0.058130000000     0.950010000000     0.938920000000     0.0371915  
H400     H      0.037260000000     0.009920000000     0.749390000000     0.0390316  
H401     H      0.151860000000     0.155750000000     0.315360000000     0.0418424  
H402     H      0.960370000000     0.013400000000     0.371590000000     0.0228854  
H403     H      0.164690000000     0.035060000000     0.286710000000     0.0256324  
H404     H      0.082940000000     0.992850000000     0.315640000000     0.0417709  
H405     H      0.012440000000     0.985190000000     0.343550000000     0.041841   
H406     H      0.083130000000     0.148490000000     0.344150000000     0.0415337  
H407     H      0.190450000000     0.162360000000     0.244760000000     0.0303531  
H408     H      0.973060000000     0.978820000000     0.413850000000     0.0298016  
H409     H      0.053290000000     0.008460000000     0.270200000000     0.0485605  
H410     H      0.111830000000     0.131680000000     0.389590000000     0.0457701  
H411     H      0.120670000000     0.997850000000     0.244570000000     0.0356191  
H412     H      0.001210000000     0.107010000000     0.371990000000     0.0244886  
H413     H      0.106720000000     0.134930000000     0.270010000000     0.0543336  
H414     H      0.056920000000     0.005520000000     0.389290000000     0.0519717  
H415     H      0.044830000000     0.143530000000     0.414530000000     0.0351706  
H416     H      0.204000000000     0.128410000000     0.286960000000     0.0237626  
H417     H      0.806750000000     0.792870000000     0.138830000000     0.0502046  
H418     H      0.951920000000     0.934030000000     0.998990000000     0.0412037  
H419     H      0.829170000000     0.717700000000     0.042190000000     0.0328463  
H420     H      0.912300000000     0.783540000000     0.059060000000     0.0405861  
H421     H      0.951100000000     0.871440000000     0.049230000000     0.0576703  
H422     H      0.895290000000     0.897800000000     0.138850000000     0.0489708  
H423     H      0.841750000000     0.715910000000     0.164520000000     0.0250323  
H424     H      0.886120000000     0.912910000000     0.004980000000     0.0248627  
H425     H      0.911140000000     0.763170000000     0.113210000000     0.0453459  
H426     H      0.833260000000     0.872580000000     0.112250000000     0.0428639  
H427     H      0.852890000000     0.686740000000     0.079980000000     0.01975    
H428     H      0.902220000000     0.973290000000     0.107190000000     0.0339156  
H429     H      0.862440000000     0.803840000000     0.171550000000     0.0425057  
H430     H      0.891560000000     0.837210000000     0.018030000000     0.0442907  
H431     H      0.860020000000     0.940160000000     0.062980000000     0.0238566  
H432     H      0.780470000000     0.709890000000     0.168380000000     0.0298048  
H433     H      0.383300000000     0.376430000000     0.064750000000     0.042776   
H434     H      0.281430000000     0.219890000000     0.012990000000     0.0327486  
H435     H      0.515530000000     0.367030000000     0.032160000000     0.0312452  
H436     H      0.444050000000     0.292260000000     0.003210000000     0.0426682  
H437     H      0.364400000000     0.230330000000     0.004980000000     0.0407474  
H438     H      0.324470000000     0.302750000000     0.089010000000     0.0490904  
H439     H      0.457350000000     0.456160000000     0.045130000000     0.0212428  
H440     H      0.280020000000     0.160550000000     0.026900000000     0.0314604  
H441     H      0.422100000000     0.327740000000     0.968730000000     0.0510133  
H442     H      0.377980000000     0.306790000000     0.121490000000     0.042933   
H443     H      0.513550000000     0.377950000000     0.975350000000     0.038888   
H444     H      0.291260000000     0.233370000000     0.141130000000     0.0308814  
H445     H      0.388560000000     0.382910000000     0.008160000000     0.0525663  
H446     H      0.368320000000     0.208060000000     0.058740000000     0.049314   
H447     H      0.333050000000     0.210980000000     0.126840000000     0.0285115  
H448     H      0.474330000000     0.415700000000     0.077810000000     0.0285391  
H449     H      0.893990000000     0.077320000000     0.217100000000     0.0424971  
H450     H      0.848480000000     0.186210000000     0.099260000000     0.0229215  
H451     H      0.953050000000     0.106190000000     0.095730000000     0.0302953  
H452     H      0.947440000000     0.185470000000     0.107960000000     0.0407108  
H453     H      0.875720000000     0.124300000000     0.080400000000     0.0431703  
H454     H      0.840360000000     0.111070000000     0.215320000000     0.0431014  
H455     H      0.973460000000     0.069770000000     0.213480000000     0.030179   
H456     H      0.804410000000     0.139090000000     0.061740000000     0.0304214  
H457     H      0.987040000000     0.197850000000     0.155130000000     0.0497749  
H458     H      0.796050000000     0.059580000000     0.180610000000     0.0520459  
H459     H      0.014240000000     0.163670000000     0.099370000000     0.0376398  
H460     H      0.819590000000     0.172810000000     0.181000000000     0.028742   
H461     H      0.953590000000     0.137260000000     0.222350000000     0.0479835  
H462     H      0.817070000000     0.071510000000     0.097060000000     0.0539367  
H463     H      0.760650000000     0.114720000000     0.192130000000     0.040599   
H464     H      0.927560000000     0.042000000000     0.169310000000     0.0300509  
H465     H      0.315000000000     0.089960000000     0.958790000000     0.0411309  
H466     H      0.417270000000     0.052900000000     0.086630000000     0.0326023  
H467     H      0.220250000000     0.976620000000     0.044710000000     0.0277535  
H468     H      0.304370000000     0.005260000000     0.077770000000     0.0428315  
H469     H      0.346540000000     0.980880000000     0.044520000000     0.0424911  
H470     H      0.398800000000     0.125480000000     0.970130000000     0.0407297  
H471     H      0.239080000000     0.094580000000     0.976680000000     0.0326202  
H472     H      0.436680000000     0.010870000000     0.066300000000     0.0402776  
H473     H      0.316760000000     0.069140000000     0.084180000000     0.0529532  
H474     H      0.413510000000     0.077610000000     0.956110000000     0.0474932  
H475     H      0.227940000000     0.009330000000     0.093530000000     0.0381118  
H476     H      0.453400000000     0.148020000000     0.034780000000     0.031132   
H477     H      0.326120000000     0.127200000000     0.005610000000     0.0449717  
H478     H      0.385940000000     0.996810000000     0.000880000000     0.0505536  
H479     H      0.488390000000     0.148350000000     0.990490000000     0.0328624  
H480     H      0.227890000000     0.030570000000     0.971820000000     0.0294617  
H481     H      0.994580000000     0.770450000000     0.078110000000     0.0386835  
H482     H      0.131370000000     0.784490000000     0.961580000000     0.0268715  
H483     H      0.117400000000     0.863750000000     0.150580000000     0.0241486  
H484     H      0.157110000000     0.861260000000     0.089100000000     0.0410963  
H485     H      0.160170000000     0.835270000000     0.023070000000     0.0426781  
H486     H      0.000330000000     0.741650000000     0.015470000000     0.0401728  
H487     H      0.988790000000     0.841050000000     0.115330000000     0.0230652  
H488     H      0.169150000000     0.763160000000     0.992420000000     0.0387795  
H489     H      0.135270000000     0.897590000000     0.056010000000     0.0657284  
H490     H      0.021440000000     0.707930000000     0.052890000000     0.0528134  
H491     H      0.150410000000     0.928150000000     0.128820000000     0.0304958  
H492     H      0.037790000000     0.729570000000     0.956980000000     0.0266514  
H493     H      0.012650000000     0.828650000000     0.046870000000     0.0551657  
H494     H      0.147930000000     0.781990000000     0.059060000000     0.0572274  
H495     H      0.007800000000     0.668450000000     0.984400000000     0.0251081  
H496     H      0.022100000000     0.813060000000     0.143940000000     0.02437    
H497     H      0.036460000000     0.317660000000     0.099970000000     0.0408306  
H498     H      0.170090000000     0.304010000000     0.995150000000     0.0260964  
H499     H      0.167930000000     0.433910000000     0.157360000000     0.0241689  
H500     H      0.198220000000     0.406420000000     0.104190000000     0.0427477  
H501     H      0.199800000000     0.361110000000     0.052060000000     0.0427006  
H502     H      0.038630000000     0.281360000000     0.036700000000     0.0402347  
H503     H      0.033840000000     0.392740000000     0.128090000000     0.029719   
H504     H      0.200750000000     0.280870000000     0.033050000000     0.0309715  
H505     H      0.177960000000     0.434570000000     0.060810000000     0.0617335  
H506     H      0.052850000000     0.248970000000     0.080510000000     0.0482234  
H507     H      0.195800000000     0.487780000000     0.121120000000     0.0383077  
H508     H      0.074780000000     0.255510000000     0.985390000000     0.0282193  
H509     H      0.052300000000     0.368770000000     0.060560000000     0.0568624  
H510     H      0.177700000000     0.310810000000     0.092770000000     0.0530759  
H511     H      0.038140000000     0.198990000000     0.017900000000     0.030446   
H512     H      0.076020000000     0.376590000000     0.157890000000     0.0229025  
N1       N      0.589090000000     0.610680000000     0.903890000000    -0.19396    
N2       N      0.527710000000     0.566720000000     0.684100000000    -0.192975   
N3       N      0.538640000000     0.504320000000     0.402070000000    -0.181623   
N4       N      0.568760000000     0.531620000000     0.183630000000    -0.185999   
N5       N      0.479590000000     0.886170000000     0.515510000000    -0.186736   
N6       N      0.558130000000     0.723570000000     0.455520000000    -0.19233    
N7       N      0.508990000000     0.386550000000     0.579160000000    -0.173202   
N8       N      0.509920000000     0.172230000000     0.640960000000    -0.188164   
N9       N      0.575750000000     0.094780000000     0.929990000000    -0.19282    
N10      N      0.533940000000     0.062010000000     0.703830000000    -0.185293   
N11      N      0.644630000000     0.103220000000     0.238920000000    -0.164984   
N12      N      0.507060000000     0.103660000000     0.411310000000    -0.186656   
N13      N      0.675790000000     0.781050000000     0.051310000000    -0.196755   
N14      N      0.603840000000     0.943460000000     0.078370000000    -0.184145   
N15      N      0.618150000000     0.233000000000     0.153990000000    -0.181523   
N16      N      0.610490000000     0.451780000000     0.113740000000    -0.183451   
N17      N      0.686350000000     0.175080000000     0.517020000000    -0.184818   
N18      N      0.849390000000     0.444880000000     0.510270000000    -0.192623   
N19      N      0.201070000000     0.656510000000     0.567580000000    -0.187239   
N20      N      0.402790000000     0.884120000000     0.600020000000    -0.185921   
N21      N      0.935260000000     0.617180000000     0.595290000000    -0.182419   
N22      N      0.687700000000     0.579100000000     0.542460000000    -0.182289   
N23      N      0.388170000000     0.582060000000     0.571590000000    -0.188967   
N24      N      0.132790000000     0.499500000000     0.501990000000    -0.182161   
N25      N      0.155430000000     0.612470000000     0.905550000000    -0.16293    
N26      N      0.074610000000     0.579170000000     0.690300000000    -0.179678   
N27      N      0.044670000000     0.531120000000     0.198980000000    -0.190895   
N28      N      0.986400000000     0.509080000000     0.399350000000    -0.182035   
N29      N      0.775920000000     0.239430000000     0.008850000000    -0.192101   
N30      N      0.020410000000     0.441710000000     0.961380000000    -0.183206   
N31      N      0.245120000000     0.740510000000     0.098370000000    -0.183984   
N32      N      0.470730000000     0.968010000000     0.140440000000    -0.163407   
N33      N      0.747680000000     0.583170000000     0.960110000000    -0.195551   
N34      N      0.940020000000     0.564770000000     0.080190000000    -0.196797   
N35      N      0.271140000000     0.594980000000     0.040070000000    -0.163271   
N36      N      0.521980000000     0.656600000000     0.052950000000    -0.179989   
N37      N      0.687010000000     0.714670000000     0.577480000000    -0.188139   
N38      N      0.923140000000     0.921310000000     0.623040000000    -0.186915   
N39      N      0.394170000000     0.437660000000     0.466690000000    -0.186255   
N40      N      0.191990000000     0.246360000000     0.556740000000    -0.181865   
N41      N      0.679510000000     0.052230000000     0.543290000000    -0.186708   
N42      N      0.913310000000     0.063280000000     0.542890000000    -0.180827   
N43      N      0.224990000000     0.097850000000     0.592490000000    -0.18075    
N44      N      0.394490000000     0.082700000000     0.499300000000    -0.186208   
N45      N      0.121260000000     0.976030000000     0.508740000000    -0.189108   
N46      N      0.087250000000     0.737960000000     0.518560000000    -0.167405   
N47      N      0.952330000000     0.350210000000     0.576430000000    -0.168059   
N48      N      0.039540000000     0.186690000000     0.661270000000    -0.164999   
N49      N      0.078480000000     0.029360000000     0.939720000000    -0.184707   
N50      N      0.109550000000     0.066410000000     0.726750000000    -0.161575   
N51      N      0.013460000000     0.061420000000     0.419490000000    -0.190051   
N52      N      0.150890000000     0.079840000000     0.239380000000    -0.192078   
N53      N      0.935240000000     0.954990000000     0.057480000000    -0.188961   
N54      N      0.799660000000     0.702370000000     0.105190000000    -0.189299   
N55      N      0.275430000000     0.199340000000     0.079180000000    -0.18983    
N56      N      0.493440000000     0.421750000000     0.012970000000    -0.173474   
N57      N      0.779370000000     0.129390000000     0.126050000000    -0.182605   
N58      N      0.995300000000     0.111440000000     0.153860000000    -0.187916   
N59      N      0.468170000000     0.086020000000     0.035920000000    -0.181673   
N60      N      0.227540000000     0.050410000000     0.035560000000    -0.18091    
N61      N      0.088670000000     0.711420000000     0.991710000000    -0.181999   
N62      N      0.069280000000     0.888670000000     0.120170000000    -0.173671   
N63      N      0.119130000000     0.236180000000     0.028440000000    -0.189386   
N64      N      0.113830000000     0.444420000000     0.119350000000    -0.184921   
O1       O      0.146750000000     0.198910000000     0.079800000000    -0.456535   
O2       O      0.019790000000     0.981100000000     0.055620000000    -0.442461   
O3       O      0.070780000000     0.064170000000     0.999690000000    -0.444532   
O4       O      0.040590000000     0.069520000000     0.167030000000    -0.430695   
O5       O      0.092520000000     0.007030000000     0.007790000000    -0.397657   
O6       O      0.074330000000     0.141000000000     0.129520000000    -0.477596   
O7       O      0.994460000000     0.000650000000     0.110130000000    -0.464169   
O8       O      0.093860000000     0.150690000000     0.030340000000    -0.432668   
O9       O      0.140120000000     0.120060000000     0.179280000000    -0.470815   
O10      O      0.162000000000     0.032280000000     0.078680000000    -0.434771   
O11      O      0.195430000000     0.166890000000     0.049340000000    -0.457796   
O12      O      0.061800000000     0.960360000000     0.125960000000    -0.469644   
O13      O      0.081040000000     0.944060000000     0.064580000000    -0.417333   
O14      O      0.204610000000     0.161080000000     0.118870000000    -0.469001   
O15      O      0.113830000000     0.038540000000     0.176820000000    -0.462284   
O16      O      0.172830000000     0.081850000000     0.022110000000    -0.429142   
O17      O      0.103270000000     0.078020000000     0.088130000000    -0.534898   
O18      O      0.058460000000     0.102870000000     0.480090000000    -0.457692   
O19      O      0.007960000000     0.098930000000     0.659380000000    -0.371834   
O20      O      0.956720000000     0.018830000000     0.543110000000    -0.436953   
O21      O      0.161700000000     0.170160000000     0.594850000000    -0.38243    
O22      O      0.992240000000     0.093890000000     0.575520000000    -0.401928   
O23      O      0.121760000000     0.171040000000     0.534990000000    -0.435072   
O24      O      0.077900000000     0.151350000000     0.626170000000    -0.440688   
O25      O      0.013260000000     0.019000000000     0.482290000000    -0.461598   
O26      O      0.170680000000     0.112800000000     0.549250000000    -0.446788   
O27      O      0.967860000000     0.009770000000     0.624270000000    -0.390877   
O28      O      0.060080000000     0.982800000000     0.539750000000    -0.469435   
O29      O      0.137120000000     0.124520000000     0.670280000000    -0.377962   
O30      O      0.063450000000     0.051760000000     0.662440000000    -0.424265   
O31      O      0.107340000000     0.043740000000     0.493920000000    -0.436651   
O32      O      0.143080000000     0.069450000000     0.609580000000    -0.393405   
O33      O      0.002410000000     0.971880000000     0.597580000000    -0.461941   
O34      O      0.063620000000     0.069390000000     0.564660000000    -0.590117   
O35      O      0.087810000000     0.481910000000     0.010580000000    -0.380721   
O36      O      0.100840000000     0.678110000000     0.054870000000    -0.451346   
O37      O      0.991750000000     0.540950000000     0.052820000000    -0.487367   
O38      O      0.186530000000     0.655290000000     0.969660000000    -0.37318    
O39      O      0.025480000000     0.604440000000     0.097550000000    -0.472237   
O40      O      0.129550000000     0.572530000000     0.970920000000    -0.436088   
O41      O      0.099670000000     0.642170000000     0.995050000000    -0.397224   
O42      O      0.027710000000     0.500430000000     0.008260000000    -0.462169   
O43      O      0.189110000000     0.541970000000     0.012340000000    -0.369362   
O44      O      0.093170000000     0.590670000000     0.149000000000    -0.469372   
O45      O      0.062880000000     0.471700000000     0.085130000000    -0.458291   
O46      O      0.189200000000     0.690570000000     0.044820000000    -0.39867    
O47      O      0.169750000000     0.666180000000     0.110620000000    -0.455746   
O48      O      0.145660000000     0.523920000000     0.086250000000    -0.401187   
O49      O      0.207930000000     0.615260000000     0.041670000000    -0.433895   
O50      O      0.027740000000     0.516950000000     0.127300000000    -0.470805   
O51      O      0.097850000000     0.578760000000     0.060950000000    -0.576266   
O52      O      0.931710000000     0.463330000000     0.509230000000    -0.469787   
O53      O      0.090570000000     0.679290000000     0.566680000000    -0.433253   
O54      O      0.961140000000     0.558340000000     0.611240000000    -0.4134     
O55      O      0.008470000000     0.559480000000     0.458080000000    -0.421816   
O56      O      0.993050000000     0.611260000000     0.556670000000    -0.424912   
O57      O      0.002450000000     0.483940000000     0.465960000000    -0.411203   
O58      O      0.058680000000     0.653350000000     0.500480000000    -0.418156   
O59      O      0.907660000000     0.478140000000     0.566480000000    -0.461758   
O60      O      0.064700000000     0.488410000000     0.537870000000    -0.450382   
O61      O      0.053130000000     0.604740000000     0.625960000000    -0.407133   
O62      O      0.967700000000     0.432650000000     0.587690000000    -0.455363   
O63      O      0.135430000000     0.632730000000     0.517660000000    -0.463461   
O64      O      0.116130000000     0.606160000000     0.580600000000    -0.441852   
O65      O      0.975350000000     0.410790000000     0.522700000000    -0.456005   
O66      O      0.091150000000     0.543900000000     0.483640000000    -0.409263   
O67      O      0.029230000000     0.522980000000     0.635640000000    -0.426724   
O68      O      0.020660000000     0.543970000000     0.545870000000    -0.657033   
O69      O      0.527000000000     0.069110000000     0.069580000000    -0.397348   
O70      O      0.614640000000     0.017950000000     0.045900000000    -0.459646   
O71      O      0.611760000000     0.150930000000     0.985800000000    -0.466289   
O72      O      0.554140000000     0.016690000000     0.121680000000    -0.42664    
O73      O      0.616660000000     0.080680000000     0.987620000000    -0.484955   
O74      O      0.521400000000     0.055560000000     0.153820000000    -0.359901   
O75      O      0.640800000000     0.020770000000     0.111850000000    -0.398244   
O76      O      0.553520000000     0.147080000000     0.044350000000    -0.437563   
O77      O      0.623200000000     0.119370000000     0.170350000000    -0.421809   
O78      O      0.712950000000     0.154710000000     0.013890000000    -0.4779     
O79      O      0.642730000000     0.208850000000     0.096560000000    -0.452611   
O80      O      0.700570000000     0.119450000000     0.135490000000    -0.390569   
O81      O      0.714540000000     0.095790000000     0.074870000000    -0.449562   
O82      O      0.570450000000     0.153390000000     0.123670000000    -0.38221    
O83      O      0.626980000000     0.048910000000     0.183240000000    -0.369354   
O84      O      0.698170000000     0.213840000000     0.035330000000    -0.469996   
O85      O      0.629580000000     0.114160000000     0.072440000000    -0.553018   
O86      O      0.427550000000     0.035930000000     0.531020000000    -0.449505   
O87      O      0.494730000000     0.967970000000     0.500520000000    -0.434945   
O88      O      0.545240000000     0.132460000000     0.477950000000    -0.43817    
O89      O      0.480640000000     0.954830000000     0.620320000000    -0.426063   
O90      O      0.498990000000     0.050590000000     0.468140000000    -0.454064   
O91      O      0.433850000000     0.964320000000     0.570390000000    -0.461064   
O92      O      0.531690000000     0.954390000000     0.558270000000    -0.442245   
O93      O      0.476490000000     0.119890000000     0.528340000000    -0.440549   
O94      O      0.480070000000     0.029300000000     0.644070000000    -0.434794   
O95      O      0.608910000000     0.109150000000     0.489890000000    -0.420625   
O96      O      0.548230000000     0.142770000000     0.599440000000    -0.451167   
O97      O      0.617410000000     0.052550000000     0.581670000000    -0.433455   
O98      O      0.597880000000     0.022220000000     0.517740000000    -0.460764   
O99      O      0.466420000000     0.097240000000     0.603280000000    -0.449409   
O100     O      0.561340000000     0.055220000000     0.640160000000    -0.450239   
O101     O      0.612050000000     0.146590000000     0.549040000000    -0.454774   
O102     O      0.524370000000     0.052590000000     0.555410000000    -0.525905   
O103     O      0.576940000000     0.473750000000     0.994530000000    -0.390018   
O104     O      0.680550000000     0.715140000000     0.085390000000    -0.484769   
O105     O      0.538220000000     0.592850000000     0.040790000000    -0.437457   
O106     O      0.645490000000     0.648840000000     0.959230000000    -0.499229   
O107     O      0.583890000000     0.647090000000     0.092880000000    -0.412398   
O108     O      0.593510000000     0.565860000000     0.963090000000    -0.419742   
O109     O      0.661940000000     0.709030000000     0.018010000000    -0.489407   
O110     O      0.533360000000     0.509830000000     0.010230000000    -0.475471   
O111     O      0.670510000000     0.549770000000     0.989730000000    -0.447412   
O112     O      0.626330000000     0.583090000000     0.134690000000    -0.465066   
O113     O      0.565020000000     0.490610000000     0.089030000000    -0.447385   
O114     O      0.741110000000     0.690880000000     0.051420000000    -0.469148   
O115     O      0.714190000000     0.652480000000     0.113790000000    -0.455749   
O116     O      0.638070000000     0.517030000000     0.063450000000    -0.43889    
O117     O      0.720310000000     0.632890000000     0.987730000000    -0.498959   
O118     O      0.549200000000     0.561370000000     0.121100000000    -0.428707   
O119     O      0.636260000000     0.605530000000     0.046620000000    -0.553994   
O120     O      0.476230000000     0.470790000000     0.493050000000    -0.42668    
O121     O      0.557800000000     0.686980000000     0.520820000000    -0.458166   
O122     O      0.437420000000     0.544970000000     0.584930000000    -0.428516   
O123     O      0.540410000000     0.563220000000     0.445780000000    -0.448738   
O124     O      0.469010000000     0.617390000000     0.548810000000    -0.46457    
O125     O      0.569210000000     0.515210000000     0.471710000000    -0.392647   
O126     O      0.536850000000     0.640300000000     0.465430000000    -0.443355   
O127     O      0.425480000000     0.485530000000     0.526260000000    -0.451727   
O128     O      0.603900000000     0.545580000000     0.557290000000    -0.437399   
O129     O      0.517800000000     0.603220000000     0.622120000000    -0.458403   
O130     O      0.489670000000     0.451920000000     0.571760000000    -0.462057   
O131     O      0.630580000000     0.674160000000     0.520510000000    -0.435746   
O132     O      0.602710000000     0.658030000000     0.585140000000    -0.480195   
O133     O      0.546110000000     0.453290000000     0.531420000000    -0.415999   
O134     O      0.632240000000     0.595340000000     0.500650000000    -0.43522    
O135     O      0.518860000000     0.531730000000     0.620130000000    -0.45834    
O136     O      0.531450000000     0.571970000000     0.532940000000    -0.542069   


