data_structure

_audit_creation_method RASPA-1.0
_audit_creation_date 2023-6-4
_audit_author_name 'Poobodin Mano'

_cell_length_a    28.9234
_cell_length_b    28.7952
_cell_length_c    30.119
_cell_angle_alpha 87.1402
_cell_angle_beta  93.8155
_cell_angle_gamma 120.435
_cell_volume      21576.4

_symmetry_cell_setting          triclinic
_symmetry_space_group_name_Hall 'P 1'
_symmetry_space_group_name_H-M  'P 1'
_symmetry_Int_Tables_number     1

_symmetry_equiv_pos_as_xyz 'x,y,z'

loop_
_atom_site_label
_atom_site_type_symbol
_atom_site_fract_x
_atom_site_fract_y
_atom_site_fract_z
_atom_site_charge
C1       C      0.181540000000     0.234400000000     0.065240000000     0.424906   
C2       C      0.003260000000     0.975880000000     0.072090000000     0.467978   
C3       C      0.119740000000     0.133900000000     0.979240000000     0.507781   
C4       C      0.021920000000     0.090290000000     0.139190000000     0.442444   
C5       C      0.140460000000     0.111880000000     0.204060000000     0.462802   
C6       C      0.228740000000     0.108930000000     0.011400000000     0.372867   
C7       C      0.241670000000     0.172740000000     0.134060000000     0.433888   
C8       C      0.125100000000     0.978750000000     0.097860000000     0.487445   
C9       C      0.131560000000     0.090430000000     0.494440000000     0.471299   
C10      C      0.085710000000     0.204650000000     0.675250000000     0.382648   
C11      C      0.015420000000     0.135700000000     0.571200000000     0.475863   
C12      C      0.193880000000     0.210470000000     0.542620000000     0.453042   
C13      C      0.245220000000     0.168520000000     0.638390000000     0.434927   
C14      C      0.992300000000     0.022310000000     0.636270000000     0.474847   
C15      C      0.093680000000     0.995770000000     0.581770000000     0.446634   
C16      C      0.157050000000     0.149280000000     0.714090000000     0.483893   
C17      C      0.012900000000     0.525510000000     0.052090000000     0.448938   
C18      C      0.190680000000     0.755070000000     0.038450000000     0.459302   
C19      C      0.026880000000     0.625490000000     0.113720000000     0.475702   
C20      C      0.173070000000     0.665330000000     0.976200000000     0.457103   
C21      C      0.217550000000     0.587560000000     0.042870000000     0.44977    
C22      C      0.140450000000     0.647910000000     0.193020000000     0.462492   
C23      C      0.121640000000     0.506040000000     0.093290000000     0.457873   
C24      C      0.243270000000     0.729830000000     0.142970000000     0.444416   
C25      C      0.994330000000     0.471620000000     0.567800000000     0.440338   
C26      C      0.101030000000     0.714900000000     0.545310000000     0.474061   
C27      C      0.979940000000     0.554180000000     0.635350000000     0.470474   
C28      C      0.112690000000     0.636020000000     0.476280000000     0.455426   
C29      C      0.202030000000     0.601050000000     0.544130000000     0.458721   
C30      C      0.108550000000     0.618590000000     0.698350000000     0.45625    
C31      C      0.127510000000     0.501320000000     0.594940000000     0.474377   
C32      C      0.184660000000     0.721110000000     0.639900000000     0.454503   
C33      C      0.531140000000     0.118500000000     0.064130000000     0.456527   
C34      C      0.685560000000     0.005020000000     0.053700000000     0.531145   
C35      C      0.646510000000     0.086430000000     0.969180000000     0.475398   
C36      C      0.526370000000     0.989520000000     0.093580000000     0.498347   
C37      C      0.584830000000     0.071350000000     0.190740000000     0.421038   
C38      C      0.736010000000     0.214460000000     0.019270000000     0.478952   
C39      C      0.664200000000     0.210870000000     0.106590000000     0.463064   
C40      C      0.747760000000     0.105230000000     0.142720000000     0.501806   
C41      C      0.490120000000     0.114680000000     0.573570000000     0.48988    
C42      C      0.568690000000     0.971540000000     0.543080000000     0.470813   
C43      C      0.542960000000     0.102960000000     0.459200000000     0.476721   
C44      C      0.501380000000     0.990470000000     0.619360000000     0.469069   
C45      C      0.598610000000     0.092250000000     0.691760000000     0.397002   
C46      C      0.682900000000     0.195150000000     0.501880000000     0.472305   
C47      C      0.621020000000     0.207130000000     0.621120000000     0.503104   
C48      C      0.697160000000     0.081210000000     0.557730000000     0.478122   
C49      C      0.537280000000     0.419700000000     0.050010000000     0.431267   
C50      C      0.638980000000     0.688820000000     0.045810000000     0.485026   
C51      C      0.487140000000     0.539590000000     0.094820000000     0.523453   
C52      C      0.606390000000     0.552500000000     0.971530000000     0.457194   
C53      C      0.743800000000     0.612020000000     0.012660000000     0.436649   
C54      C      0.573720000000     0.537920000000     0.191050000000     0.525336   
C55      C      0.647610000000     0.476270000000     0.129210000000     0.446076   
C56      C      0.720110000000     0.667100000000     0.125740000000     0.47439    
C57      C      0.467690000000     0.476690000000     0.555420000000     0.368804   
C58      C      0.639680000000     0.718170000000     0.534810000000     0.518979   
C59      C      0.510660000000     0.622420000000     0.581360000000     0.450632   
C60      C      0.607150000000     0.546750000000     0.480070000000     0.460108   
C61      C      0.693300000000     0.559010000000     0.578730000000     0.45379    
C62      C      0.558680000000     0.580110000000     0.684340000000     0.43152    
C63      C      0.552970000000     0.452220000000     0.618760000000     0.375833   
C64      C      0.731230000000     0.699940000000     0.611020000000     0.509748   
C65      C      0.585000000000     0.561500000000     0.760490000000     0.0365721  
C66      C      0.563130000000     0.589210000000     0.918290000000     0.0193111  
C67      C      0.577940000000     0.514330000000     0.895480000000     0.187929   
C68      C      0.506220000000     0.559810000000     0.895240000000    -0.105619   
C69      C      0.578230000000     0.571290000000     0.809160000000    -0.17268    
C70      C      0.519780000000     0.483350000000     0.876600000000    -0.155755   
C71      C      0.519810000000     0.545630000000     0.818740000000     0.0442237  
C72      C      0.503400000000     0.523330000000     0.859330000000     0.0235129  
C73      C      0.489650000000     0.541030000000     0.740050000000     0.0163361  
C74      C      0.485360000000     0.557620000000     0.786530000000    -0.11367    
C75      C      0.607890000000     0.566220000000     0.399960000000     0.0470117  
C76      C      0.560720000000     0.471520000000     0.251360000000     0.0205313  
C77      C      0.574980000000     0.564340000000     0.268750000000     0.190232   
C78      C      0.513930000000     0.444700000000     0.283030000000    -0.106462   
C79      C      0.612560000000     0.542930000000     0.357230000000    -0.182651   
C80      C      0.526200000000     0.534880000000     0.298200000000    -0.156455   
C81      C      0.561790000000     0.490480000000     0.350940000000     0.050194   
C82      C      0.524990000000     0.484830000000     0.318080000000     0.0235885  
C83      C      0.556620000000     0.468530000000     0.432020000000     0.0159275  
C84      C      0.553710000000     0.447680000000     0.385020000000    -0.115554   
C85      C      0.581610000000     0.895640000000     0.557330000000     0.0310724  
C86      C      0.623280000000     0.754730000000     0.460580000000     0.00432585 
C87      C      0.619770000000     0.792100000000     0.529250000000     0.193135   
C88      C      0.598740000000     0.792590000000     0.440780000000    -0.103704   
C89      C      0.562460000000     0.838670000000     0.543410000000    -0.141745   
C90      C      0.651010000000     0.846530000000     0.504470000000    -0.154239   
C91      C      0.565800000000     0.839600000000     0.491580000000     0.0300776  
C92      C      0.607930000000     0.839030000000     0.472040000000     0.0190768  
C93      C      0.543950000000     0.911610000000     0.480230000000     0.0163638  
C94      C      0.529290000000     0.854820000000     0.466450000000    -0.109903   
C95      C      0.531940000000     0.358780000000     0.623850000000     0.0324517  
C96      C      0.652240000000     0.258840000000     0.695550000000     0.00270736 
C97      C      0.604330000000     0.278490000000     0.637240000000     0.19796    
C98      C      0.643260000000     0.303900000000     0.720150000000    -0.103776   
C99      C      0.583470000000     0.357400000000     0.627700000000    -0.140467   
C100     C      0.562180000000     0.263080000000     0.672560000000    -0.152889   
C101     C      0.599120000000     0.356810000000     0.679430000000     0.023065   
C102     C      0.594070000000     0.309900000000     0.700390000000     0.0218886  
C103     C      0.555720000000     0.411790000000     0.693550000000     0.0120219  
C104     C      0.603440000000     0.402350000000     0.705970000000    -0.103682   
C105     C      0.582850000000     0.089900000000     0.770390000000     0.0437464  
C106     C      0.682470000000     0.065500000000     0.906400000000     0.0225242  
C107     C      0.605120000000     0.083180000000     0.896010000000     0.191952   
C108     C      0.718780000000     0.117470000000     0.879810000000    -0.106602   
C109     C      0.606180000000     0.062560000000     0.802020000000    -0.18644    
C110     C      0.643020000000     0.137170000000     0.872880000000    -0.158877   
C111     C      0.665620000000     0.100750000000     0.810960000000     0.0473743  
C112     C      0.682900000000     0.129520000000     0.848640000000     0.0248757  
C113     C      0.675790000000     0.150140000000     0.741470000000     0.021323   
C114     C      0.699190000000     0.121760000000     0.771060000000    -0.115649   
C115     C      0.562170000000     0.095420000000     0.258930000000     0.0486449  
C116     C      0.493740000000     0.029370000000     0.407630000000     0.013907   
C117     C      0.558750000000     0.122680000000     0.380350000000     0.18647    
C118     C      0.532600000000     0.009400000000     0.398440000000    -0.0917184  
C119     C      0.524220000000     0.064780000000     0.295900000000    -0.190706   
C120     C      0.598770000000     0.103870000000     0.371600000000    -0.150168   
C121     C      0.542100000000     0.029690000000     0.320750000000     0.0564301  
C122     C      0.567020000000     0.044060000000     0.361180000000     0.00857956 
C123     C      0.587510000000     0.021890000000     0.258810000000     0.0229132  
C124     C      0.546960000000     0.990090000000     0.294210000000    -0.1207     
C125     C      0.616900000000     0.762020000000     0.042740000000     0.043321   
C126     C      0.736930000000     0.971050000000     0.017740000000     0.0211924  
C127     C      0.635700000000     0.909890000000     0.031760000000     0.192469   
C128     C      0.728770000000     0.936500000000     0.977000000000    -0.109047   
C129     C      0.658590000000     0.821710000000     0.051200000000    -0.179418   
C130     C      0.630600000000     0.882860000000     0.987710000000    -0.160551   
C131     C      0.689580000000     0.845950000000     0.009900000000     0.0429597  
C132     C      0.681310000000     0.881060000000     0.983740000000     0.0288419  
C133     C      0.677860000000     0.759550000000     0.987080000000     0.0176413  
C134     C      0.718700000000     0.819470000000     0.994120000000    -0.113004   
C135     C      0.642310000000     0.399230000000     0.174870000000     0.0392545  
C136     C      0.712280000000     0.308240000000     0.089670000000     0.0242058  
C137     C      0.676940000000     0.272640000000     0.166920000000     0.189972   
C138     C      0.762160000000     0.356650000000     0.111470000000    -0.110489   
C139     C      0.662690000000     0.367500000000     0.150530000000    -0.171908   
C140     C      0.728540000000     0.319710000000     0.187270000000    -0.157913   
C141     C      0.723490000000     0.396780000000     0.154650000000     0.0400157  
C142     C      0.748070000000     0.367490000000     0.155570000000     0.0278291  
C143     C      0.730190000000     0.484520000000     0.165590000000     0.0178476  
C144     C      0.752950000000     0.455550000000     0.141330000000    -0.109666   
C145     C      0.908250000000     0.412190000000     0.524560000000     0.0338409  
C146     C      0.773320000000     0.213090000000     0.487420000000     0.0197879  
C147     C      0.760070000000     0.288520000000     0.507330000000     0.18905    
C148     C      0.804700000000     0.218410000000     0.532570000000    -0.110361   
C149     C      0.880200000000     0.355550000000     0.503230000000    -0.170175   
C150     C      0.785730000000     0.290950000000     0.554160000000    -0.158035   
C151     C      0.875980000000     0.312360000000     0.536080000000     0.0389781  
C152     C      0.827530000000     0.274650000000     0.550490000000     0.0316632  
C153     C      0.941830000000     0.375570000000     0.589780000000     0.0172112  
C154     C      0.925330000000     0.324700000000     0.563940000000    -0.112825   
C155     C      0.281020000000     0.773480000000     0.665340000000     0.0410115  
C156     C      0.404460000000     0.951670000000     0.604090000000     0.0209285  
C157     C      0.437910000000     0.905820000000     0.660020000000     0.18609    
C158     C      0.375980000000     0.961810000000     0.640650000000    -0.106222   
C159     C      0.321240000000     0.827380000000     0.644410000000    -0.176732   
C160     C      0.409040000000     0.915720000000     0.696520000000    -0.154704   
C161     C      0.315760000000     0.870460000000     0.665550000000     0.0446738  
C162     C      0.360760000000     0.917580000000     0.675310000000     0.0246485  
C163     C      0.218240000000     0.809080000000     0.676110000000     0.0189957  
C164     C      0.261140000000     0.865200000000     0.659450000000    -0.114278   
C165     C      0.904310000000     0.564960000000     0.656130000000     0.0495683  
C166     C      0.754010000000     0.530290000000     0.552940000000     0.0209615  
C167     C      0.749580000000     0.541850000000     0.635170000000     0.189363   
C168     C      0.748640000000     0.474540000000     0.563560000000    -0.106597   
C169     C      0.855690000000     0.551510000000     0.624220000000    -0.180243   
C170     C      0.739250000000     0.484600000000     0.644660000000    -0.156966   
C171     C      0.820250000000     0.491270000000     0.619900000000     0.0475166  
C172     C      0.767330000000     0.471330000000     0.611320000000     0.0223241  
C173     C      0.892390000000     0.472900000000     0.646570000000     0.0218639  
C174     C      0.846610000000     0.459260000000     0.611340000000    -0.116627   
C175     C      0.429800000000     0.609940000000     0.535080000000     0.0382401  
C176     C      0.270270000000     0.597250000000     0.592400000000     0.0195151  
C177     C      0.278390000000     0.602410000000     0.510090000000     0.17874    
C178     C      0.314460000000     0.657000000000     0.597410000000    -0.10121    
C179     C      0.377870000000     0.605250000000     0.550830000000    -0.170326   
C180     C      0.322060000000     0.662450000000     0.513250000000    -0.150736   
C181     C      0.389860000000     0.659930000000     0.564970000000     0.0445432  
C182     C      0.350840000000     0.672240000000     0.558990000000     0.0200786  
C183     C      0.484650000000     0.691630000000     0.583540000000     0.0191128  
C184     C      0.433700000000     0.686380000000     0.600420000000    -0.115227   
C185     C      0.101680000000     0.632780000000     0.777070000000     0.0441636  
C186     C      0.236170000000     0.701920000000     0.916320000000     0.0179677  
C187     C      0.136350000000     0.678790000000     0.903350000000     0.187619   
C188     C      0.250010000000     0.738870000000     0.874570000000    -0.108596   
C189     C      0.130380000000     0.626740000000     0.819940000000    -0.181865   
C190     C      0.157270000000     0.722250000000     0.866460000000    -0.158468   
C191     C      0.186660000000     0.673520000000     0.820780000000     0.0489501  
C192     C      0.200420000000     0.717880000000     0.844750000000     0.0273975  
C193     C      0.192440000000     0.674660000000     0.740310000000     0.0160567  
C194     C      0.220050000000     0.673340000000     0.785120000000    -0.114916   
C195     C      0.157630000000     0.694460000000     0.266390000000     0.035813   
C196     C      0.082190000000     0.592750000000     0.403990000000     0.0179852  
C197     C      0.157760000000     0.688290000000     0.408350000000     0.187731   
C198     C      0.121010000000     0.574580000000     0.389980000000    -0.107182   
C199     C      0.135760000000     0.662650000000     0.310710000000    -0.168789   
C200     C      0.198020000000     0.671220000000     0.397230000000    -0.155922   
C201     C      0.162900000000     0.630640000000     0.325050000000     0.0400011  
C202     C      0.169040000000     0.621700000000     0.368670000000     0.025167   
C203     C      0.197090000000     0.636740000000     0.252240000000     0.0180323  
C204     C      0.169400000000     0.598540000000     0.290970000000    -0.111387   
C205     C      0.939990000000     0.431170000000     0.056450000000     0.0423941  
C206     C      0.767010000000     0.293420000000     0.968310000000     0.0192395  
C207     C      0.832330000000     0.281820000000     0.024930000000     0.193296   
C208     C      0.815250000000     0.329210000000     0.939220000000    -0.109113   
C209     C      0.880580000000     0.397570000000     0.041630000000    -0.182802   
C210     C      0.875660000000     0.312400000000     0.991060000000    -0.161379   
C211     C      0.875540000000     0.398120000000     0.991860000000     0.0461889  
C212     C      0.865600000000     0.354590000000     0.968590000000     0.0279637  
C213     C      0.955030000000     0.488280000000     0.984390000000     0.0157757  
C214     C      0.895310000000     0.452490000000     0.970540000000    -0.11467    
C215     C      0.311340000000     0.824830000000     0.164020000000     0.0350164  
C216     C      0.478920000000     0.898690000000     0.064980000000     0.018367   
C217     C      0.426830000000     0.947470000000     0.085560000000     0.185663   
C218     C      0.425720000000     0.853080000000     0.045070000000    -0.112146   
C219     C      0.370500000000     0.858940000000     0.150140000000    -0.168951   
C220     C      0.379100000000     0.901590000000     0.060130000000    -0.159108   
C221     C      0.375510000000     0.829940000000     0.112090000000     0.0413671  
C222     C      0.382480000000     0.851510000000     0.070120000000     0.0355289  
C223     C      0.335050000000     0.751270000000     0.164500000000     0.0117334  
C224     C      0.369990000000     0.775530000000     0.123620000000    -0.104751   
C225     C      0.841300000000     0.656590000000     0.022120000000     0.041927   
C226     C      0.928910000000     0.569990000000     0.125000000000     0.0216187  
C227     C      0.966400000000     0.653510000000     0.076480000000     0.193439   
C228     C      0.896560000000     0.535350000000     0.084280000000    -0.111487   
C229     C      0.853350000000     0.628220000000     0.062420000000    -0.179061   
C230     C      0.941850000000     0.619210000000     0.034750000000    -0.161774   
C231     C      0.846400000000     0.574860000000     0.048770000000     0.043502   
C232     C      0.889960000000     0.569690000000     0.047410000000     0.0275084  
C233     C      0.788940000000     0.569190000000     0.982900000000     0.0237953  
C234     C      0.796310000000     0.537120000000     0.022170000000    -0.114136   
C235     C      0.302670000000     0.592600000000     0.064710000000     0.0479494  
C236     C      0.396010000000     0.489460000000     0.058080000000     0.0213774  
C237     C      0.437990000000     0.588240000000     0.077270000000     0.193574   
C238     C      0.384560000000     0.502390000000     0.009600000000    -0.105153   
C239     C      0.323590000000     0.553800000000     0.067530000000    -0.19144    
C240     C      0.427800000000     0.600240000000     0.028330000000    -0.155696   
C241     C      0.330190000000     0.542530000000     0.021190000000     0.0520306  
C242     C      0.378210000000     0.551270000000     0.009460000000     0.0188761  
C243     C      0.252330000000     0.550380000000     0.990840000000     0.0189537  
C244     C      0.280310000000     0.516700000000     0.991480000000    -0.119215   
C245     C      0.785740000000     0.791570000000     0.634870000000     0.0430434  
C246     C      0.967350000000     0.941820000000     0.682050000000     0.0174906  
C247     C      0.902580000000     0.941870000000     0.622810000000     0.191786   
C248     C      0.974780000000     0.901630000000     0.655490000000    -0.106917   
C249     C      0.838380000000     0.830300000000     0.660300000000    -0.177665   
C250     C      0.910800000000     0.904010000000     0.594440000000    -0.158198   
C251     C      0.884740000000     0.826380000000     0.644820000000     0.0457509  
C252     C      0.925380000000     0.869440000000     0.625210000000     0.0231134  
C253     C      0.828190000000     0.739190000000     0.609230000000     0.0214046  
C254     C      0.877260000000     0.771360000000     0.640520000000    -0.115184   
C255     C      0.397090000000     0.385680000000     0.541320000000     0.0431397  
C256     C      0.206010000000     0.292260000000     0.502940000000     0.0183909  
C257     C      0.264830000000     0.250410000000     0.489430000000     0.194316   
C258     C      0.230870000000     0.329900000000     0.462150000000    -0.107713   
C259     C      0.337680000000     0.355280000000     0.526470000000    -0.188182   
C260     C      0.281210000000     0.284930000000     0.446650000000    -0.159018   
C261     C      0.327580000000     0.373870000000     0.480950000000     0.0490108  
C262     C      0.285460000000     0.338090000000     0.454890000000     0.0241997  
C263     C      0.412890000000     0.460700000000     0.486140000000     0.0196461  
C264     C      0.352480000000     0.433650000000     0.473720000000    -0.11601    
C265     C      0.929200000000     0.125710000000     0.587450000000     0.0490495  
C266     C      0.755080000000     0.076680000000     0.504030000000     0.0212187  
C267     C      0.773300000000     0.071670000000     0.589400000000     0.190806   
C268     C      0.772040000000     0.035010000000     0.497650000000    -0.108519   
C269     C      0.884950000000     0.132530000000     0.564250000000    -0.189226   
C270     C      0.789510000000     0.030160000000     0.578830000000    -0.158115   
C271     C      0.861600000000     0.091290000000     0.528990000000     0.052902   
C272     C      0.813820000000     0.045140000000     0.533700000000     0.0239654  
C273     C      0.950820000000     0.111010000000     0.508460000000     0.0225661  
C274     C      0.896520000000     0.103830000000     0.490780000000    -0.119978   
C275     C      0.411670000000     0.095120000000     0.615340000000     0.0471578  
C276     C      0.333890000000     0.215120000000     0.606660000000     0.0226234  
C277     C      0.299500000000     0.124620000000     0.643580000000     0.177265   
C278     C      0.327860000000     0.190620000000     0.560610000000    -0.106799   
C279     C      0.404120000000     0.144010000000     0.614610000000    -0.181954   
C280     C      0.289760000000     0.098270000000     0.598050000000    -0.136737   
C281     C      0.380040000000     0.148580000000     0.569490000000     0.0484477  
C282     C      0.330030000000     0.139730000000     0.566620000000     0.0135815  
C283     C      0.406230000000     0.093240000000     0.532180000000     0.0245695  
C284     C      0.403790000000     0.144840000000     0.527800000000    -0.116997   
C285     C      0.121440000000     0.927120000000     0.581050000000     0.0397302  
C286     C      0.037710000000     0.738900000000     0.509980000000     0.0193086  
C287     C      0.139100000000     0.811100000000     0.526630000000     0.188484   
C288     C      0.033760000000     0.780850000000     0.478940000000    -0.109146   
C289     C      0.096350000000     0.865610000000     0.576350000000    -0.178883   
C290     C      0.129620000000     0.847380000000     0.492920000000    -0.158478   
C291     C      0.059330000000     0.847550000000     0.535480000000     0.0480748  
C292     C      0.072960000000     0.834870000000     0.497500000000     0.0272737  
C293     C      0.038880000000     0.918100000000     0.535370000000     0.0210527  
C294     C      0.013760000000     0.857380000000     0.535860000000    -0.118442   
C295     C      0.152730000000     0.445390000000     0.643670000000     0.03452    
C296     C      0.028390000000     0.242870000000     0.667710000000     0.021439   
C297     C      0.126600000000     0.302120000000     0.679710000000     0.182131   
C298     C      0.032540000000     0.259010000000     0.617570000000    -0.108542   
C299     C      0.102300000000     0.389850000000     0.653220000000    -0.163483   
C300     C      0.135080000000     0.316700000000     0.629640000000    -0.154252   
C301     C      0.079420000000     0.355850000000     0.611180000000     0.0330545  
C302     C      0.083580000000     0.311960000000     0.609710000000     0.0359916  
C303     C      0.135830000000     0.430950000000     0.562010000000     0.0258504  
C304     C      0.079780000000     0.382400000000     0.566740000000    -0.112973   
C305     C      0.082250000000     0.125460000000     0.901550000000     0.0416823  
C306     C      0.218800000000     0.200440000000     0.775800000000     0.0194881  
C307     C      0.139180000000     0.102150000000     0.787210000000     0.189473   
C308     C      0.244290000000     0.194170000000     0.820610000000    -0.11083    
C309     C      0.112000000000     0.150050000000     0.858020000000    -0.175335   
C310     C      0.170730000000     0.099970000000     0.829440000000    -0.159948   
C311     C      0.171550000000     0.174140000000     0.868460000000     0.0461209  
C312     C      0.199700000000     0.155350000000     0.848970000000     0.0333965  
C313     C      0.154970000000     0.215670000000     0.931710000000     0.0229156  
C314     C      0.197520000000     0.220060000000     0.900770000000    -0.113129   
C315     C      0.120820000000     0.111380000000     0.414790000000     0.0415293  
C316     C      0.187990000000     0.093430000000     0.266900000000     0.0177995  
C317     C      0.113120000000     0.112870000000     0.279950000000     0.182886   
C318     C      0.157290000000     0.038830000000     0.291710000000    -0.104362   
C319     C      0.154930000000     0.122990000000     0.374160000000    -0.177652   
C320     C      0.082790000000     0.057170000000     0.303030000000    -0.152675   
C321     C      0.151530000000     0.071370000000     0.362510000000     0.0484562  
C322     C      0.124250000000     0.044920000000     0.325060000000     0.0208206  
C323     C      0.144120000000     0.038420000000     0.439620000000     0.0177707  
C324     C      0.174340000000     0.048580000000     0.397030000000    -0.116541   
C325     C      0.820350000000     0.732270000000     0.130320000000     0.028208   
C326     C      0.910110000000     0.958180000000     0.060440000000    -0.000795659
C327     C      0.923260000000     0.885620000000     0.088750000000     0.183837   
C328     C      0.850440000000     0.917210000000     0.078990000000    -0.104306   
C329     C      0.840240000000     0.783370000000     0.099580000000    -0.136282   
C330     C      0.902100000000     0.890540000000     0.132210000000    -0.153999   
C331     C      0.815670000000     0.820210000000     0.110150000000     0.0268946  
C332     C      0.847590000000     0.875230000000     0.116050000000     0.0189489  
C333     C      0.756860000000     0.752630000000     0.164010000000     0.0211748  
C334     C      0.760290000000     0.793160000000     0.127700000000    -0.108183   
C335     C      0.321190000000     0.263240000000     0.147310000000     0.0364088  
C336     C      0.513470000000     0.332630000000     0.088250000000     0.0205717  
C337     C      0.441270000000     0.357620000000     0.065850000000     0.183496   
C338     C      0.471760000000     0.273030000000     0.079090000000    -0.110373   
C339     C      0.383110000000     0.292000000000     0.145400000000    -0.174387   
C340     C      0.404260000000     0.299080000000     0.052070000000    -0.15947    
C341     C      0.397870000000     0.254930000000     0.125700000000     0.0482771  
C342     C      0.416650000000     0.264560000000     0.084200000000     0.027107   
C343     C      0.324540000000     0.176410000000     0.166010000000     0.0162157  
C344     C      0.383490000000     0.204070000000     0.151710000000    -0.114192   
C345     C      0.845660000000     0.154560000000     0.163350000000     0.0413432  
C346     C      0.944880000000     0.045730000000     0.188380000000     0.0184465  
C347     C      0.948310000000     0.111200000000     0.126020000000     0.185929   
C348     C      0.883550000000     0.010850000000     0.179510000000    -0.110241   
C349     C      0.883250000000     0.134670000000     0.183890000000    -0.175079   
C350     C      0.888470000000     0.071770000000     0.115260000000    -0.15762    
C351     C      0.852170000000     0.073950000000     0.186340000000     0.0456025  
C352     C      0.862620000000     0.045430000000     0.158410000000     0.028278   
C353     C      0.779090000000     0.084230000000     0.215700000000     0.0206047  
C354     C      0.803200000000     0.047230000000     0.214030000000    -0.113231   
C355     C      0.454070000000     0.116010000000     0.020170000000     0.0341365  
C356     C      0.253830000000     0.041610000000     0.028910000000     0.0222573  
C357     C      0.320820000000     0.129610000000     0.996310000000     0.188025   
C358     C      0.282090000000     0.058690000000     0.075690000000    -0.115975   
C359     C      0.391850000000     0.081860000000     0.019240000000    -0.166316   
C360     C      0.348990000000     0.149200000000     0.041980000000    -0.16275    
C361     C      0.371930000000     0.080430000000     0.064470000000     0.0416773  
C362     C      0.340080000000     0.100680000000     0.070100000000     0.030239   
C363     C      0.456470000000     0.108310000000     0.105240000000     0.0224974  
C364     C      0.396790000000     0.066960000000     0.104070000000    -0.11693    
C365     C      0.232780000000     0.852760000000     0.036250000000     0.0267795  
C366     C      0.057860000000     0.881000000000     0.093820000000    -0.00148135 
C367     C      0.151240000000     0.911320000000     0.091650000000     0.183832   
C368     C      0.053440000000     0.831750000000     0.065250000000    -0.102278   
C369     C      0.198110000000     0.879330000000     0.036980000000    -0.142002   
C370     C      0.134310000000     0.854350000000     0.110520000000    -0.151245   
C371     C      0.136530000000     0.833480000000     0.035810000000     0.0337022  
C372     C      0.103920000000     0.825130000000     0.070820000000     0.0230169  
C373     C      0.163020000000     0.795660000000     0.977440000000     0.0204272  
C374     C      0.116160000000     0.799300000000     0.995250000000    -0.107488   
C375     C      0.130090000000     0.431850000000     0.063180000000     0.0266081  
C376     C      0.205870000000     0.286330000000     0.135330000000     0.0115566  
C377     C      0.169940000000     0.313830000000     0.071980000000     0.17757    
C378     C      0.193180000000     0.327020000000     0.160370000000    -0.110526   
C379     C      0.164370000000     0.405010000000     0.071700000000    -0.135757   
C380     C      0.121890000000     0.296640000000     0.100870000000    -0.150634   
C381     C      0.161750000000     0.387860000000     0.122250000000     0.0277245  
C382     C      0.149650000000     0.336680000000     0.135610000000     0.0243036  
C383     C      0.182080000000     0.481430000000     0.135060000000     0.0153379  
C384     C      0.175280000000     0.429270000000     0.156530000000    -0.108136   
Co1      Co     0.127480000000     0.160150000000     0.124050000000     1.02958    
Co2      Co     0.099730000000     0.044340000000     0.031680000000     1.01015    
Co3      Co     0.190300000000     0.139900000000     0.055630000000     1.08632    
Co4      Co     0.091630000000     0.037320000000     0.140040000000     1.05408    
Co5      Co     0.172410000000     0.100500000000     0.583680000000     1.06879    
Co6      Co     0.078220000000     0.125480000000     0.651980000000     1.10839    
Co7      Co     0.057210000000     0.075660000000     0.554660000000     1.11141    
Co8      Co     0.167530000000     0.199420000000     0.627960000000     0.960617   
Co9      Co     0.112410000000     0.577850000000     0.026000000000     1.05476    
Co10     Co     0.133150000000     0.695760000000     0.107850000000     1.07695    
Co11     Co     0.089060000000     0.570080000000     0.129440000000     1.09921    
Co12     Co     0.219730000000     0.675920000000     0.068430000000     1.0657     
Co13     Co     0.085700000000     0.551690000000     0.530640000000     1.03715    
Co14     Co     0.068750000000     0.648550000000     0.617360000000     1.05846    
Co15     Co     0.076340000000     0.541250000000     0.636770000000     1.0937     
Co16     Co     0.169890000000     0.669190000000     0.565660000000     1.11081    
Co17     Co     0.601610000000     0.102930000000     0.120500000000     1.0832     
Co18     Co     0.722360000000     0.120280000000     0.050570000000     1.13184    
Co19     Co     0.623690000000     0.140960000000     0.025160000000     1.06954    
Co20     Co     0.631850000000     0.028740000000     0.119390000000     1.09168    
Co21     Co     0.569240000000     0.095410000000     0.617910000000     1.08187    
Co22     Co     0.601170000000     0.072000000000     0.507700000000     1.14879    
Co23     Co     0.586880000000     0.167540000000     0.532310000000     1.17103    
Co24     Co     0.614710000000     0.047890000000     0.613800000000     0.874158   
Co25     Co     0.640100000000     0.510830000000     0.045730000000     0.941067   
Co26     Co     0.600280000000     0.617080000000     0.119110000000     1.14401    
Co27     Co     0.546100000000     0.484030000000     0.105330000000     1.1485     
Co28     Co     0.674940000000     0.611730000000     0.047270000000     1.06833    
Co29     Co     0.583290000000     0.523900000000     0.571510000000     0.837422   
Co30     Co     0.619660000000     0.661070000000     0.622390000000     1.13487    
Co31     Co     0.535750000000     0.541180000000     0.596430000000     0.808133   
Co32     Co     0.667960000000     0.635910000000     0.531820000000     1.17521    
H1       H      0.597640000000     0.556410000000     0.836440000000     0.19716    
H2       H      0.591760000000     0.621350000000     0.895860000000     0.0345907  
H3       H      0.470480000000     0.496450000000     0.738810000000     0.0368718  
H4       H      0.442650000000     0.534800000000     0.795650000000     0.0481421  
H5       H      0.495420000000     0.589800000000     0.881390000000     0.0441834  
H6       H      0.515920000000     0.456240000000     0.849740000000     0.065473   
H7       H      0.627100000000     0.590520000000     0.751960000000     0.0395178  
H8       H      0.561160000000     0.609160000000     0.948230000000     0.0367609  
H9       H      0.499390000000     0.601400000000     0.786610000000     0.0537261  
H10      H      0.492960000000     0.457700000000     0.903300000000     0.0679235  
H11      H      0.466730000000     0.553540000000     0.716160000000     0.0400161  
H12      H      0.587980000000     0.483930000000     0.909620000000     0.00938533 
H13      H      0.596930000000     0.615500000000     0.813280000000     0.0734676  
H14      H      0.476640000000     0.534880000000     0.920490000000     0.0511667  
H15      H      0.578920000000     0.520330000000     0.758710000000     0.0300626  
H16      H      0.685720000000     0.498560000000     0.893080000000     0.0292081  
H17      H      0.618880000000     0.567030000000     0.324640000000     0.199632   
H18      H      0.597700000000     0.475840000000     0.268970000000     0.0319894  
H19      H      0.515970000000     0.460420000000     0.439210000000     0.0357173  
H20      H      0.514390000000     0.410210000000     0.379250000000     0.0479907  
H21      H      0.510410000000     0.406860000000     0.297640000000     0.0449432  
H22      H      0.528530000000     0.561730000000     0.324570000000     0.065079   
H23      H      0.646960000000     0.603670000000     0.406710000000     0.0275996  
H24      H      0.551370000000     0.443660000000     0.223560000000     0.037606   
H25      H      0.585860000000     0.437640000000     0.382700000000     0.0542565  
H26      H      0.488670000000     0.523390000000     0.277650000000     0.0628612  
H27      H      0.566800000000     0.444340000000     0.456360000000     0.0438519  
H28      H      0.572720000000     0.598390000000     0.251790000000     0.00573243 
H29      H      0.646870000000     0.535590000000     0.361860000000     0.0772516  
H30      H      0.475580000000     0.433950000000     0.264130000000     0.0511229  
H31      H      0.576220000000     0.577340000000     0.395450000000     0.0297475  
H32      H      0.696240000000     0.570920000000     0.200170000000     0.0360383  
H33      H      0.587660000000     0.819340000000     0.561980000000     0.15677    
H34      H      0.595120000000     0.712670000000     0.450020000000     0.0397023  
H35      H      0.578570000000     0.941300000000     0.460740000000     0.0195967  
H36      H      0.532210000000     0.853890000000     0.429900000000     0.0439115  
H37      H      0.554940000000     0.766250000000     0.433370000000     0.0464704  
H38      H      0.665600000000     0.882160000000     0.525690000000     0.0673247  
H39      H      0.570200000000     0.893400000000     0.592290000000     0.0355422  
H40      H      0.661930000000     0.768200000000     0.444940000000     0.0319958  
H41      H      0.487210000000     0.825560000000     0.474830000000     0.0497225  
H42      H      0.687370000000     0.852580000000     0.488440000000     0.066475   
H43      H      0.509290000000     0.917150000000     0.470270000000     0.0307812  
H44      H      0.575560000000     0.763920000000     0.519610000000     0.00872635 
H45      H      0.519810000000     0.812750000000     0.552010000000     0.0621249  
H46      H      0.617100000000     0.810980000000     0.408630000000     0.0444083  
H47      H      0.626100000000     0.919790000000     0.557230000000     0.031355   
H48      H      0.625920000000     0.745480000000     0.665340000000     0.0139122  
H49      H      0.581720000000     0.320860000000     0.608300000000     0.159164   
H50      H      0.695750000000     0.272550000000     0.696430000000     0.0288793  
H51      H      0.519640000000     0.380340000000     0.710470000000     0.0316613  
H52      H      0.604540000000     0.393790000000     0.742310000000     0.0469027  
H53      H      0.680630000000     0.343780000000     0.717980000000     0.0454094  
H54      H      0.523590000000     0.259200000000     0.659270000000     0.0696116  
H55      H      0.517890000000     0.356640000000     0.588360000000     0.0382792  
H56      H      0.632020000000     0.220650000000     0.715210000000     0.0374226  
H57      H      0.641430000000     0.439820000000     0.698670000000     0.0534243  
H58      H      0.550340000000     0.224300000000     0.690860000000     0.0760952  
H59      H      0.565190000000     0.451260000000     0.706490000000     0.0430592  
H60      H      0.643840000000     0.318700000000     0.638730000000     0.00369207 
H61      H      0.615280000000     0.394570000000     0.611780000000     0.0727234  
H62      H      0.637500000000     0.292950000000     0.756040000000     0.0453831  
H63      H      0.499440000000     0.323440000000     0.641200000000     0.0242896  
H64      H      0.551670000000     0.240190000000     0.505670000000     0.0184504  
H65      H      0.588070000000     0.050740000000     0.835600000000     0.206735   
H66      H      0.663630000000     0.030590000000     0.883750000000     0.0328769  
H67      H      0.681840000000     0.186140000000     0.758840000000     0.023936   
H68      H      0.742140000000     0.150290000000     0.780280000000     0.0479087  
H69      H      0.747930000000     0.112260000000     0.861450000000     0.0454496  
H70      H      0.620660000000     0.151490000000     0.850650000000     0.0629375  
H71      H      0.541030000000     0.059230000000     0.759810000000     0.0339135  
H72      H      0.706980000000     0.057090000000     0.932000000000     0.0330679  
H73      H      0.696490000000     0.087680000000     0.752990000000     0.0599572  
H74      H      0.664930000000     0.168860000000     0.898270000000     0.0665039  
H75      H      0.698150000000     0.165440000000     0.710440000000     0.0442931  
H76      H      0.576090000000     0.089160000000     0.913720000000     0.0113215  
H77      H      0.600420000000     0.025770000000     0.786190000000     0.0777586  
H78      H      0.742060000000     0.151390000000     0.903050000000     0.0565479  
H79      H      0.580480000000     0.122110000000     0.786770000000     0.0235858  
H80      H      0.480650000000     0.998400000000     0.988710000000     0.0418663  
H81      H      0.524810000000     0.093830000000     0.320210000000     0.206363   
H82      H      0.465310000000     0.021920000000     0.378480000000     0.0347542  
H83      H      0.628600000000     0.044750000000     0.274710000000     0.0261931  
H84      H      0.560360000000     0.965880000000     0.315380000000     0.0460784  
H85      H      0.509680000000     0.965960000000     0.389900000000     0.0399666  
H86      H      0.625390000000     0.128060000000     0.344470000000     0.0651048  
H87      H      0.542200000000     0.113070000000     0.237150000000     0.0423393  
H88      H      0.468370000000     0.005960000000     0.435820000000     0.0418214  
H89      H      0.507280000000     0.962050000000     0.277890000000     0.0554596  
H90      H      0.625420000000     0.110080000000     0.401780000000     0.0583811  
H91      H      0.586840000000     0.992150000000     0.236210000000     0.0296802  
H92      H      0.581980000000     0.165720000000     0.389900000000     0.0141207  
H93      H      0.482680000000     0.039180000000     0.281600000000     0.0793542  
H94      H      0.558630000000     0.013780000000     0.428610000000     0.0315762  
H95      H      0.600300000000     0.129580000000     0.272460000000     0.0265121  
H96      H      0.479460000000     0.166110000000     0.440960000000     0.0273429  
H97      H      0.644120000000     0.849830000000     0.060860000000     0.198698   
H98      H      0.757150000000     0.960080000000     0.045510000000     0.0260135  
H99      H      0.651220000000     0.755380000000     0.957320000000     0.027996   
H100     H      0.739020000000     0.838310000000     0.962670000000     0.0486885  
H101     H      0.765910000000     0.935150000000     0.972410000000     0.0449719  
H102     H      0.594590000000     0.841810000000     0.986610000000     0.0632695  
H103     H      0.597220000000     0.743300000000     0.074430000000     0.0265276  
H104     H      0.764830000000     0.013860000000     0.008510000000     0.0307529  
H105     H      0.749400000000     0.822920000000     0.019930000000     0.0552243  
H106     H      0.625450000000     0.906520000000     0.959470000000     0.0653258  
H107     H      0.699950000000     0.738830000000     0.979440000000     0.0484928  
H108     H      0.599910000000     0.914750000000     0.031930000000     0.0100251  
H109     H      0.687030000000     0.823620000000     0.078690000000     0.071312   
H110     H      0.721200000000     0.955510000000     0.946480000000     0.0509573  
H111     H      0.585360000000     0.758630000000     0.017740000000     0.0214931  
H112     H      0.515760000000     0.803850000000     0.049880000000     0.0191406  
H113     H      0.646880000000     0.322980000000     0.159400000000     0.196665   
H114     H      0.682770000000     0.320050000000     0.076760000000     0.0305446  
H115     H      0.740930000000     0.485130000000     0.201810000000     0.0272815  
H116     H      0.796410000000     0.474180000000     0.150850000000     0.0454646  
H117     H      0.776940000000     0.392400000000     0.088700000000     0.0432306  
H118     H      0.721020000000     0.329810000000     0.220220000000     0.0683042  
H119     H      0.598230000000     0.380470000000     0.168970000000     0.02981    
H120     H      0.725790000000     0.296760000000     0.060650000000     0.0390602  
H121     H      0.747890000000     0.459820000000     0.104780000000     0.0535926  
H122     H      0.759720000000     0.307990000000     0.192700000000     0.0698021  
H123     H      0.749280000000     0.527350000000     0.154110000000     0.0373132  
H124     H      0.666080000000     0.236960000000     0.189200000000     0.0163437  
H125     H      0.650810000000     0.367920000000     0.114660000000     0.074791   
H126     H      0.794780000000     0.347070000000     0.117220000000     0.0665063  
H127     H      0.650440000000     0.397360000000     0.211320000000     0.025739   
H128     H      0.535180000000     0.186170000000     0.183170000000     0.0472918  
H129     H      0.836990000000     0.340620000000     0.489270000000     0.193621   
H130     H      0.802080000000     0.237990000000     0.461610000000     0.0347783  
H131     H      0.910000000000     0.368050000000     0.612680000000     0.02603    
H132     H      0.918330000000     0.290870000000     0.587390000000     0.04797    
H133     H      0.836880000000     0.208830000000     0.528490000000     0.0511734  
H134     H      0.803630000000     0.331920000000     0.568020000000     0.0626435  
H135     H      0.924370000000     0.443140000000     0.497450000000     0.0351221  
H136     H      0.752510000000     0.170990000000     0.475900000000     0.0320845  
H137     H      0.957730000000     0.331730000000     0.541980000000     0.0510349  
H138     H      0.754750000000     0.262610000000     0.577210000000     0.0769251  
H139     H      0.978250000000     0.384050000000     0.610760000000     0.0322703  
H140     H      0.729260000000     0.300490000000     0.509340000000     0.0116742  
H141     H      0.904450000000     0.356920000000     0.475520000000     0.0697726  
H142     H      0.776960000000     0.189060000000     0.557000000000     0.0703856  
H143     H      0.877080000000     0.416290000000     0.540170000000     0.0234154  
H144     H      0.715610000000     0.346280000000     0.579580000000     0.0243076  
H145     H      0.365730000000     0.840030000000     0.644400000000     0.197002   
H146     H      0.376230000000     0.914000000000     0.586370000000     0.0304463  
H147     H      0.220820000000     0.807940000000     0.713100000000     0.0249778  
H148     H      0.259590000000     0.896520000000     0.678400000000     0.0501197  
H149     H      0.340480000000     0.963390000000     0.626020000000     0.0457607  
H150     H      0.396500000000     0.883530000000     0.722740000000     0.0655913  
H151     H      0.284210000000     0.741190000000     0.649680000000     0.0309933  
H152     H      0.416380000000     0.984010000000     0.578140000000     0.0471345  
H153     H      0.252570000000     0.870400000000     0.623580000000     0.0629897  
H154     H      0.437090000000     0.954750000000     0.712710000000     0.0698588  
H155     H      0.178070000000     0.803210000000     0.665650000000     0.0427962  
H156     H      0.475270000000     0.908660000000     0.675370000000     0.0111606  
H157     H      0.308760000000     0.826050000000     0.608490000000     0.0722312  
H158     H      0.404020000000     0.001010000000     0.656360000000     0.062479   
H159     H      0.291770000000     0.772810000000     0.701420000000     0.0210769  
H160     H      0.442870000000     0.868060000000     0.551080000000     0.0358165  
H161     H      0.829110000000     0.567680000000     0.634390000000     0.201161   
H162     H      0.796670000000     0.561570000000     0.549050000000     0.0322479  
H163     H      0.875650000000     0.458160000000     0.679920000000     0.0265146  
H164     H      0.817360000000     0.415240000000     0.612580000000     0.0463607  
H165     H      0.771590000000     0.466640000000     0.539780000000     0.049559   
H166     H      0.752970000000     0.480900000000     0.679390000000     0.0639077  
H167     H      0.934180000000     0.608730000000     0.653320000000     0.0228065  
H168     H      0.732480000000     0.527790000000     0.520320000000     0.037398   
H169     H      0.863150000000     0.470950000000     0.577840000000     0.0600096  
H170     H      0.695720000000     0.455690000000     0.641240000000     0.0669811  
H171     H      0.914150000000     0.451970000000     0.638610000000     0.0295772  
H172     H      0.726220000000     0.549470000000     0.658740000000     0.00792373 
H173     H      0.871010000000     0.569070000000     0.590960000000     0.0809925  
H174     H      0.705740000000     0.442750000000     0.558880000000     0.0571659  
H175     H      0.890940000000     0.556840000000     0.690860000000     0.0240564  
H176     H      0.770970000000     0.650620000000     0.692300000000     0.0383613  
H177     H      0.338520000000     0.586360000000     0.528850000000     0.19215    
H178     H      0.287180000000     0.570290000000     0.597240000000     0.0331327  
H179     H      0.497610000000     0.720390000000     0.554920000000     0.0301124  
H180     H      0.441110000000     0.727230000000     0.607530000000     0.0517251  
H181     H      0.336340000000     0.662840000000     0.630310000000     0.0485813  
H182     H      0.350740000000     0.673850000000     0.486370000000     0.061614   
H183     H      0.421920000000     0.568570000000     0.529990000000     0.0374284  
H184     H      0.241760000000     0.585240000000     0.619470000000     0.0540487  
H185     H      0.422580000000     0.661570000000     0.631600000000     0.0571996  
H186     H      0.303220000000     0.687880000000     0.508690000000     0.0555527  
H187     H      0.516620000000     0.709290000000     0.610430000000     0.0446192  
H188     H      0.255100000000     0.595950000000     0.477820000000     0.00137192 
H189     H      0.367430000000     0.578700000000     0.581080000000     0.0754354  
H190     H      0.296610000000     0.683280000000     0.596340000000     0.0629213  
H191     H      0.440080000000     0.632080000000     0.502610000000     0.0263711  
H192     H      0.175950000000     0.500220000000     0.452940000000     0.0225252  
H193     H      0.115570000000     0.626080000000     0.854090000000     0.200895   
H194     H      0.237940000000     0.665510000000     0.908530000000     0.0311746  
H195     H      0.200290000000     0.716300000000     0.734800000000     0.0308798  
H196     H      0.261590000000     0.708430000000     0.786920000000     0.0467187  
H197     H      0.283940000000     0.740190000000     0.858160000000     0.0444959  
H198     H      0.124310000000     0.716740000000     0.842270000000     0.0649465  
H199     H      0.060950000000     0.596450000000     0.773990000000     0.0252474  
H200     H      0.268440000000     0.724350000000     0.942190000000     0.0332632  
H201     H      0.222450000000     0.635970000000     0.788190000000     0.0558303  
H202     H      0.173850000000     0.762800000000     0.880880000000     0.0607525  
H203     H      0.211630000000     0.665470000000     0.713940000000     0.0469337  
H204     H      0.108370000000     0.685080000000     0.922170000000     0.0107446  
H205     H      0.131260000000     0.588650000000     0.818170000000     0.0769951  
H206     H      0.263430000000     0.780730000000     0.884390000000     0.0504428  
H207     H      0.097040000000     0.668680000000     0.778060000000     0.0250116  
H208     H      0.369010000000     0.671150000000     0.970890000000     0.0104846  
H209     H      0.138030000000     0.686220000000     0.341390000000     0.194339   
H210     H      0.062360000000     0.600920000000     0.374360000000     0.0335964  
H211     H      0.237630000000     0.669450000000     0.263670000000     0.0287337  
H212     H      0.194610000000     0.581640000000     0.304670000000     0.0475279  
H213     H      0.099520000000     0.540070000000     0.367020000000     0.0434444  
H214     H      0.232390000000     0.704790000000     0.379930000000     0.0642531  
H215     H      0.129570000000     0.707510000000     0.251930000000     0.0334868  
H216     H      0.049140000000     0.559030000000     0.422250000000     0.0299233  
H217     H      0.129460000000     0.564920000000     0.279640000000     0.0528723  
H218     H      0.214490000000     0.661490000000     0.428410000000     0.0705439  
H219     H      0.204150000000     0.614710000000     0.226730000000     0.0471254  
H220     H      0.178440000000     0.723210000000     0.430960000000     0.0069253  
H221     H      0.092500000000     0.633230000000     0.303750000000     0.0704816  
H222     H      0.135280000000     0.560490000000     0.419980000000     0.0515377  
H223     H      0.197070000000     0.731220000000     0.273560000000     0.0282855  
H224     H      0.267340000000     0.747230000000     0.548200000000    -0.0062576  
H225     H      0.859480000000     0.353600000000     0.052910000000     0.199573   
H226     H      0.755800000000     0.319700000000     0.984930000000     0.0260007  
H227     H      0.979130000000     0.476750000000     0.965210000000     0.0275887  
H228     H      0.890190000000     0.450260000000     0.933650000000     0.0477254  
H229     H      0.808880000000     0.360090000000     0.920760000000     0.0440112  
H230     H      0.916410000000     0.330790000000     0.007610000000     0.0659865  
H231     H      0.941780000000     0.436470000000     0.092980000000     0.0290756  
H232     H      0.732570000000     0.266900000000     0.945540000000     0.0296138  
H233     H      0.872200000000     0.470400000000     0.982260000000     0.0503303  
H234     H      0.873390000000     0.283970000000     0.966130000000     0.061427   
H235     H      0.966510000000     0.530410000000     0.974600000000     0.0374272  
H236     H      0.837620000000     0.247740000000     0.037570000000    -0.00122417 
H237     H      0.858710000000     0.416190000000     0.054470000000     0.0677994  
H238     H      0.818260000000     0.303970000000     0.914070000000     0.048878   
H239     H      0.960980000000     0.408910000000     0.050420000000     0.0274565  
H240     H      0.913720000000     0.272310000000     0.104440000000     0.0288162  
H241     H      0.392470000000     0.903840000000     0.140540000000     0.192907   
H242     H      0.491740000000     0.881510000000     0.093900000000     0.0360732  
H243     H      0.318680000000     0.707020000000     0.166930000000     0.0393672  
H244     H      0.349950000000     0.747950000000     0.095150000000     0.0407446  
H245     H      0.425340000000     0.814230000000     0.047380000000     0.0442543  
H246     H      0.340900000000     0.896330000000     0.071190000000     0.0683997  
H247     H      0.308380000000     0.834470000000     0.198590000000     0.0251129  
H248     H      0.509350000000     0.911290000000     0.039390000000     0.0399063  
H249     H      0.410200000000     0.780100000000     0.131100000000     0.0463892  
H250     H      0.380680000000     0.911260000000     0.023830000000     0.0624528  
H251     H      0.360250000000     0.767580000000     0.195620000000     0.0259429  
H252     H      0.431570000000     0.985950000000     0.071530000000     0.00888124 
H253     H      0.396440000000     0.858070000000     0.178810000000     0.068626   
H254     H      0.421020000000     0.861520000000     0.009110000000     0.0507287  
H255     H      0.286330000000     0.835970000000     0.141520000000     0.035237   
H256     H      0.499960000000     0.930990000000     0.185400000000     0.0271475  
H257     H      0.895620000000     0.651860000000     0.078270000000     0.201085   
H258     H      0.903060000000     0.580650000000     0.142610000000     0.0353472  
H259     H      0.821740000000     0.581880000000     0.959580000000     0.0253226  
H260     H      0.798500000000     0.502630000000     0.009570000000     0.0438304  
H261     H      0.857170000000     0.501420000000     0.094320000000     0.0425628  
H262     H      0.935480000000     0.642510000000     0.006960000000     0.0667233  
H263     H      0.839630000000     0.691850000000     0.033460000000     0.0343519  
H264     H      0.939830000000     0.546000000000     0.148880000000     0.031996   
H265     H      0.761550000000     0.520520000000     0.043700000000     0.0656181  
H266     H      0.969710000000     0.606900000000     0.023160000000     0.0836001  
H267     H      0.750550000000     0.543210000000     0.963850000000     0.0293039  
H268     H      0.003860000000     0.690730000000     0.067170000000     0.0117104  
H269     H      0.824390000000     0.619790000000     0.088440000000     0.0835428  
H270     H      0.918460000000     0.517310000000     0.071730000000     0.0598863  
H271     H      0.874070000000     0.672180000000     0.998500000000     0.0243834  
H272     H      0.037920000000     0.560180000000     0.238820000000     0.0163793  
H273     H      0.362970000000     0.569760000000     0.087450000000     0.207617   
H274     H      0.359470000000     0.474650000000     0.077340000000     0.0294918  
H275     H      0.272300000000     0.584750000000     0.966920000000     0.0269156  
H276     H      0.289920000000     0.513760000000     0.956940000000     0.0491823  
H277     H      0.348010000000     0.467000000000     0.995110000000     0.0462335  
H278     H      0.423020000000     0.636280000000     0.025830000000     0.0620538  
H279     H      0.294920000000     0.597670000000     0.099310000000     0.034705   
H280     H      0.404000000000     0.455590000000     0.057850000000     0.0429932  
H281     H      0.253030000000     0.475230000000     0.003940000000     0.0554648  
H282     H      0.462970000000     0.609430000000     0.008910000000     0.0659362  
H283     H      0.210200000000     0.524350000000     0.978010000000     0.034241   
H284     H      0.476310000000     0.623930000000     0.088710000000     0.0133178  
H285     H      0.294280000000     0.515410000000     0.083810000000     0.0750463  
H286     H      0.418800000000     0.511040000000     0.989220000000     0.0542239  
H287     H      0.333990000000     0.632620000000     0.052090000000     0.0167956  
H288     H      0.437760000000     0.443550000000     0.179980000000     0.0292009  
H289     H      0.848350000000     0.874030000000     0.654970000000     0.198855   
H290     H      0.935460000000     0.919570000000     0.706230000000     0.0368203  
H291     H      0.836590000000     0.756750000000     0.574910000000     0.0291886  
H292     H      0.913200000000     0.773240000000     0.627280000000     0.0476069  
H293     H      0.982730000000     0.874920000000     0.678720000000     0.0461735  
H294     H      0.874100000000     0.878780000000     0.573220000000     0.0630671  
H295     H      0.751980000000     0.785210000000     0.654940000000     0.0310397  
H296     H      0.004960000000     0.967840000000     0.701970000000     0.0406789  
H297     H      0.870350000000     0.751140000000     0.673820000000     0.0580745  
H298     H      0.943500000000     0.928570000000     0.571840000000     0.0681911  
H299     H      0.820340000000     0.697180000000     0.608400000000     0.0356513  
H300     H      0.894460000000     0.969020000000     0.600290000000     0.00228672 
H301     H      0.834440000000     0.819970000000     0.696450000000     0.0752022  
H302     H      0.010220000000     0.924300000000     0.634960000000     0.0583177  
H303     H      0.783070000000     0.811510000000     0.602980000000     0.0262615  
H304     H      0.860900000000     0.970810000000     0.517280000000     0.0128365  
H305     H      0.322180000000     0.310900000000     0.524410000000     0.211177   
H306     H      0.221010000000     0.317110000000     0.533340000000     0.0286325  
H307     H      0.432820000000     0.449720000000     0.461760000000     0.0325542  
H308     H      0.346810000000     0.443360000000     0.438290000000     0.049653   
H309     H      0.233070000000     0.369060000000     0.466840000000     0.0469889  
H310     H      0.320250000000     0.291280000000     0.436270000000     0.0661131  
H311     H      0.400590000000     0.377950000000     0.577640000000     0.0339077  
H312     H      0.161830000000     0.275510000000     0.499880000000     0.0391378  
H313     H      0.333370000000     0.449140000000     0.494890000000     0.060335   
H314     H      0.250850000000     0.263590000000     0.419210000000     0.0640448  
H315     H      0.430300000000     0.505130000000     0.484130000000     0.0378137  
H316     H      0.255590000000     0.209430000000     0.480560000000     0.00141541 
H317     H      0.314680000000     0.361960000000     0.551040000000     0.0796035  
H318     H      0.204200000000     0.311530000000     0.432060000000     0.0520959  
H319     H      0.418360000000     0.369320000000     0.523860000000     0.0287776  
H320     H      0.463500000000     0.267720000000     0.555540000000     0.0186657  
H321     H      0.850710000000     0.127120000000     0.584360000000     0.203883   
H322     H      0.788450000000     0.117200000000     0.494840000000     0.0236215  
H323     H      0.947920000000     0.071040000000     0.506830000000     0.0172258  
H324     H      0.878260000000     0.071480000000     0.465710000000     0.0452717  
H325     H      0.787270000000     0.039480000000     0.463880000000     0.0422238  
H326     H      0.818220000000     0.029640000000     0.604970000000     0.0716994  
H327     H      0.948860000000     0.156580000000     0.613110000000     0.0266871  
H328     H      0.721540000000     0.067660000000     0.479260000000     0.030804   
H329     H      0.902670000000     0.141710000000     0.474010000000     0.0501952  
H330     H      0.753520000000     0.988980000000     0.578400000000     0.0657106  
H331     H      0.981880000000     0.138870000000     0.485200000000     0.0325399  
H332     H      0.748790000000     0.055700000000     0.619290000000     0.00569646 
H333     H      0.902890000000     0.173710000000     0.548940000000     0.0721042  
H334     H      0.736920000000     0.993550000000     0.500670000000     0.0504314  
H335     H      0.912160000000     0.085730000000     0.604690000000     0.0315979  
H336     H      0.763000000000     0.139470000000     0.674170000000     0.0421696  
H337     H      0.376020000000     0.140880000000     0.640920000000     0.199936   
H338     H      0.375210000000     0.229800000000     0.621240000000     0.0346141  
H339     H      0.364910000000     0.057660000000     0.533180000000     0.0235968  
H340     H      0.379470000000     0.143880000000     0.497240000000     0.0482319  
H341     H      0.359490000000     0.220480000000     0.538660000000     0.059233   
H342     H      0.293100000000     0.061460000000     0.601260000000     0.057259   
H343     H      0.435910000000     0.095700000000     0.645740000000     0.0377055  
H344     H      0.329220000000     0.251130000000     0.603240000000     0.0499925  
H345     H      0.444910000000     0.180140000000     0.525130000000     0.058493   
H346     H      0.248460000000     0.085480000000     0.584470000000     0.0294314  
H347     H      0.424390000000     0.088350000000     0.502640000000     0.0386916  
H348     H      0.268940000000     0.095220000000     0.666460000000     0.0134523  
H349     H      0.443780000000     0.181130000000     0.620100000000     0.0785093  
H350     H      0.288750000000     0.179420000000     0.544070000000     0.0731277  
H351     H      0.371890000000     0.057860000000     0.617030000000     0.0188149  
H352     H      0.107480000000     0.999280000000     0.696520000000     0.0452507  
H353     H      0.124090000000     0.848510000000     0.573630000000     0.197242   
H354     H      0.014580000000     0.732930000000     0.539940000000     0.0334964  
H355     H      0.056470000000     0.934850000000     0.502520000000     0.0272402  
H356     H      0.985310000000     0.840480000000     0.506540000000     0.0459514  
H357     H      0.991930000000     0.773010000000     0.476800000000     0.0458801  
H358     H      0.158770000000     0.890620000000     0.499340000000     0.0643587  
H359     H      0.139230000000     0.938110000000     0.615470000000     0.0288809  
H360     H      0.017890000000     0.700010000000     0.492160000000     0.0417267  
H361     H      0.991150000000     0.839560000000     0.566520000000     0.0527833  
H362     H      0.135570000000     0.839330000000     0.458630000000     0.0649334  
H363     H      0.005600000000     0.926000000000     0.538030000000     0.0270751  
H364     H      0.176970000000     0.813290000000     0.518000000000     0.00811913 
H365     H      0.072230000000     0.845400000000     0.605940000000     0.071588   
H366     H      0.043930000000     0.777520000000     0.444700000000     0.0547447  
H367     H      0.154370000000     0.948240000000     0.557600000000     0.0226737  
H368     H      0.249890000000     0.953660000000     0.579290000000     0.0144124  
H369     H      0.111810000000     0.364520000000     0.679350000000     0.18917    
H370     H      0.020380000000     0.270260000000     0.686310000000     0.0373796  
H371     H      0.166320000000     0.418150000000     0.562980000000     0.0258657  
H372     H      0.069380000000     0.354750000000     0.538450000000     0.0468403  
H373     H      0.996200000000     0.260560000000     0.605160000000     0.0454474  
H374     H      0.169980000000     0.357930000000     0.625610000000     0.0624539  
H375     H      0.159920000000     0.473730000000     0.670530000000     0.0324248  
H376     H      0.994140000000     0.201610000000     0.673340000000     0.0390034  
H377     H      0.049690000000     0.395460000000     0.565690000000     0.0647124  
H378     H      0.146380000000     0.292410000000     0.610820000000     0.0784439  
H379     H      0.138800000000     0.451820000000     0.529320000000     0.032817   
H380     H      0.163160000000     0.303150000000     0.695080000000    -0.00194547 
H381     H      0.070740000000     0.396430000000     0.665610000000     0.0668246  
H382     H      0.034250000000     0.228640000000     0.598090000000     0.0715971  
H383     H      0.188860000000     0.441210000000     0.644410000000     0.0256392  
H384     H      0.122790000000     0.244490000000     0.777020000000     0.0344654  
H385     H      0.100990000000     0.124560000000     0.827070000000     0.19779    
H386     H      0.203720000000     0.228540000000     0.780120000000     0.0319171  
H387     H      0.174670000000     0.237990000000     0.962890000000     0.0437527  
H388     H      0.229710000000     0.217710000000     0.921310000000     0.0626466  
H389     H      0.269240000000     0.233990000000     0.836530000000     0.0480495  
H390     H      0.143290000000     0.069610000000     0.853690000000     0.0692949  
H391     H      0.042980000000     0.123850000000     0.899210000000     0.0290367  
H392     H      0.251330000000     0.219740000000     0.751760000000     0.0380177  
H393     H      0.215490000000     0.259270000000     0.882350000000     0.0485466  
H394     H      0.199770000000     0.087550000000     0.821090000000     0.0679864  
H395     H      0.133860000000     0.235710000000     0.915350000000     0.0304326  
H396     H      0.124970000000     0.063870000000     0.769560000000     0.0131128  
H397     H      0.104930000000     0.183520000000     0.847010000000     0.074698   
H398     H      0.271380000000     0.178370000000     0.814900000000     0.0571236  
H399     H      0.074540000000     0.083510000000     0.905130000000     0.0312334  
H400     H      0.985440000000     0.036120000000     0.753020000000     0.0560624  
H401     H      0.146240000000     0.139980000000     0.341540000000     0.196478   
H402     H      0.218280000000     0.124170000000     0.290190000000     0.0324205  
H403     H      0.104000000000     0.001440000000     0.435580000000     0.0235843  
H404     H      0.170260000000     0.010200000000     0.386370000000     0.0467715  
H405     H      0.186010000000     0.027510000000     0.307790000000     0.0449988  
H406     H      0.055540000000     0.056540000000     0.327700000000     0.0611751  
H407     H      0.127530000000     0.150490000000     0.426440000000     0.0332395  
H408     H      0.211180000000     0.090100000000     0.240450000000     0.0363886  
H409     H      0.217700000000     0.077970000000     0.403520000000     0.0528967  
H410     H      0.057410000000     0.026100000000     0.277960000000     0.0566077  
H411     H      0.166950000000     0.029850000000     0.466730000000     0.0339027  
H412     H      0.082550000000     0.119950000000     0.261500000000     0.011743   
H413     H      0.197370000000     0.152470000000     0.384280000000     0.0730899  
H414     H      0.130640000000     0.006950000000     0.267670000000     0.0504994  
H415     H      0.077490000000     0.085640000000     0.405250000000     0.0211954  
H416     H      0.951250000000     0.006500000000     0.289490000000     0.00770666 
H417     H      0.888740000000     0.810520000000     0.095920000000     0.158146   
H418     H      0.906070000000     0.966720000000     0.024460000000     0.034343   
H419     H      0.788450000000     0.773480000000     0.190810000000     0.0266815  
H420     H      0.751260000000     0.822560000000     0.141780000000     0.0456127  
H421     H      0.823900000000     0.894950000000     0.050050000000     0.0456231  
H422     H      0.903210000000     0.863240000000     0.159320000000     0.0691643  
H423     H      0.823810000000     0.700720000000     0.113650000000     0.0371419  
H424     H      0.926610000000     0.996860000000     0.077900000000     0.0311786  
H425     H      0.730310000000     0.772060000000     0.100140000000     0.0639833  
H426     H      0.924090000000     0.932010000000     0.145660000000     0.0710827  
H427     H      0.717920000000     0.734590000000     0.180370000000     0.0359582  
H428     H      0.894340000000     0.869450000000     0.058250000000     0.0137604  
H429     H      0.824120000000     0.768210000000     0.065500000000     0.0732259  
H430     H      0.833330000000     0.940670000000     0.091300000000     0.0428172  
H431     H      0.847280000000     0.743290000000     0.160810000000     0.0296248  
H432     H      0.024960000000     0.919040000000     0.990250000000     0.0199221  
H433     H      0.405820000000     0.332010000000     0.125560000000     0.193515   
H434     H      0.517380000000     0.338970000000     0.124700000000     0.0315743  
H435     H      0.303580000000     0.133550000000     0.156150000000     0.0331605  
H436     H      0.389610000000     0.176010000000     0.132420000000     0.0496774  
H437     H      0.479980000000     0.246330000000     0.102050000000     0.0495325  
H438     H      0.361370000000     0.287720000000     0.052480000000     0.0726313  
H439     H      0.310770000000     0.276540000000     0.177170000000     0.0248555  
H440     H      0.552810000000     0.340210000000     0.077560000000     0.0365057  
H441     H      0.411020000000     0.214350000000     0.181800000000     0.0495511  
H442     H      0.411900000000     0.293710000000     0.017500000000     0.0656455  
H443     H      0.324700000000     0.175960000000     0.202940000000     0.0259051  
H444     H      0.433890000000     0.382970000000     0.040590000000     0.005982   
H445     H      0.400710000000     0.300560000000     0.180080000000     0.0684999  
H446     H      0.475270000000     0.263670000000     0.044540000000     0.0517777  
H447     H      0.306530000000     0.276480000000     0.117070000000     0.0360577  
H448     H      0.340120000000     0.389590000000     0.136220000000     0.0195991  
H449     H      0.921690000000     0.146500000000     0.166090000000     0.195775   
H450     H      0.953100000000     0.071260000000     0.217700000000     0.0321369  
H451     H      0.735790000000     0.059880000000     0.222750000000     0.0328656  
H452     H      0.772370000000     0.008330000000     0.199050000000     0.0537584  
H453     H      0.863840000000     0.991530000000     0.211100000000     0.0439379  
H454     H      0.868990000000     0.093090000000     0.098330000000     0.0661297  
H455     H      0.858390000000     0.194970000000     0.176290000000     0.0275713  
H456     H      0.960180000000     0.017940000000     0.197660000000     0.0298234  
H457     H      0.814440000000     0.038940000000     0.248250000000     0.0452997  
H458     H      0.883450000000     0.040850000000     0.091910000000     0.0598722  
H459     H      0.798880000000     0.112160000000     0.243980000000     0.0251459  
H460     H      0.966900000000     0.127620000000     0.093540000000     0.0108287  
H461     H      0.895960000000     0.149870000000     0.218390000000     0.0718289  
H462     H      0.874940000000     0.978150000000     0.156870000000     0.050423   
H463     H      0.850610000000     0.158970000000     0.126840000000     0.032367   
H464     H      0.989330000000     0.089000000000     0.025580000000     0.0452709  
H465     H      0.368130000000     0.095270000000     0.994460000000     0.18947    
H466     H      0.270230000000     0.020390000000     0.011370000000     0.0373003  
H467     H      0.463240000000     0.149040000000     0.111800000000     0.0269976  
H468     H      0.379450000000     0.068370000000     0.135550000000     0.0511843  
H469     H      0.279630000000     0.024460000000     0.095850000000     0.0702511  
H470     H      0.392410000000     0.177430000000     0.037930000000     0.0664219  
H471     H      0.468180000000     0.104600000000     0.991410000000     0.0312806  
H472     H      0.210410000000     0.012230000000     0.031780000000     0.043634   
H473     H      0.389890000000     0.025720000000     0.101020000000     0.0693033  
H474     H      0.332230000000     0.170510000000     0.058570000000     0.0865273  
H475     H      0.475140000000     0.096510000000     0.133720000000     0.0543078  
H476     H      0.324970000000     0.164690000000     0.975910000000     0.00925778 
H477     H      0.379670000000     0.039810000000     0.011010000000     0.0714524  
H478     H      0.262420000000     0.075370000000     0.094340000000     0.0758449  
H479     H      0.466110000000     0.159160000000     0.015560000000     0.0217851  
H480     H      0.285900000000     0.275550000000     0.990710000000     0.0344729  
H481     H      0.207400000000     0.912520000000     0.064730000000     0.158839   
H482     H      0.033520000000     0.895820000000     0.074940000000     0.0540783  
H483     H      0.147180000000     0.757500000000     0.960040000000     0.0314329  
H484     H      0.083070000000     0.758240000000     0.003880000000     0.0684462  
H485     H      0.046150000000     0.838640000000     0.029470000000     0.0507984  
H486     H      0.168410000000     0.847580000000     0.120030000000     0.0677774  
H487     H      0.269400000000     0.879310000000     0.017740000000     0.0227915  
H488     H      0.037350000000     0.863600000000     0.125410000000     0.0438738  
H489     H      0.100550000000     0.817540000000     0.969510000000     0.0467841  
H490     H      0.109700000000     0.842580000000     0.140400000000     0.0703718  
H491     H      0.184040000000     0.828550000000     0.952490000000     0.0229903  
H492     H      0.141490000000     0.916630000000     0.054880000000     0.00776054 
H493     H      0.204320000000     0.902870000000     0.005260000000     0.0602017  
H494     H      0.017850000000     0.793400000000     0.075630000000     0.0626598  
H495     H      0.245180000000     0.848060000000     0.071140000000     0.0291304  
H496     H      0.235940000000     0.031480000000     0.179300000000     0.0368889  
H497     H      0.161690000000     0.370590000000     0.047650000000     0.15413    
H498     H      0.247890000000     0.297580000000     0.143770000000     0.0319977  
H499     H      0.180650000000     0.505270000000     0.162300000000     0.0453513  
H500     H      0.142170000000     0.413150000000     0.179940000000     0.0532361  
H501     H      0.231420000000     0.366000000000     0.164510000000     0.0473204  
H502     H      0.088400000000     0.299820000000     0.083310000000     0.0752673  
H503     H      0.138890000000     0.452070000000     0.029880000000     0.0330919  
H504     H      0.178730000000     0.246970000000     0.151180000000     0.00223246 
H505     H      0.212900000000     0.438080000000     0.175750000000     0.0462065  
H506     H      0.104050000000     0.254700000000     0.114440000000     0.0726292  
H507     H      0.222720000000     0.505330000000     0.121980000000     0.0336668  
H508     H      0.209770000000     0.351500000000     0.081350000000     0.0118402  
H509     H      0.206450000000     0.437600000000     0.067350000000     0.060302   
H510     H      0.179920000000     0.310950000000     0.194360000000     0.0516336  
H511     H      0.086920000000     0.400270000000     0.062910000000     0.0313077  
H512     H      0.313080000000     0.351680000000     0.054330000000     0.0245199  
N1       N      0.582230000000     0.551060000000     0.930380000000    -0.195947   
N2       N      0.546270000000     0.566200000000     0.728120000000    -0.179909   
N3       N      0.571560000000     0.525910000000     0.235720000000    -0.211162   
N4       N      0.595200000000     0.527070000000     0.437840000000    -0.186712   
N5       N      0.633030000000     0.755630000000     0.510820000000    -0.219141   
N6       N      0.558630000000     0.923030000000     0.528440000000    -0.191642   
N7       N      0.629600000000     0.247450000000     0.647930000000    -0.215691   
N8       N      0.543480000000     0.408550000000     0.644940000000    -0.167448   
N9       N      0.639760000000     0.070400000000     0.926390000000    -0.201832   
N10      N      0.617590000000     0.113250000000     0.732530000000    -0.175387   
N11      N      0.525540000000     0.087810000000     0.416470000000    -0.208734   
N12      N      0.574440000000     0.060040000000     0.234410000000    -0.180483   
N13      N      0.685860000000     0.963560000000     0.033590000000    -0.212348   
N14      N      0.644250000000     0.735010000000     0.026110000000    -0.193478   
N15      N      0.686450000000     0.262340000000     0.121500000000    -0.195152   
N16      N      0.671210000000     0.456040000000     0.158950000000    -0.186046   
N17      N      0.735180000000     0.232000000000     0.492200000000    -0.198393   
N18      N      0.951200000000     0.420980000000     0.558950000000    -0.185836   
N19      N      0.450430000000     0.947510000000     0.624380000000    -0.199526   
N20      N      0.226240000000     0.766260000000     0.659450000000    -0.190305   
N21      N      0.731970000000     0.545680000000     0.588640000000    -0.198707   
N22      N      0.928130000000     0.531600000000     0.647230000000    -0.191331   
N23      N      0.242870000000     0.589530000000     0.547680000000    -0.198346   
N24      N      0.474930000000     0.639190000000     0.568500000000    -0.183597   
N25      N      0.182130000000     0.684130000000     0.933240000000    -0.200618   
N26      N      0.133350000000     0.637890000000     0.738670000000    -0.189643   
N27      N      0.112740000000     0.641970000000     0.430730000000    -0.198086   
N28      N      0.164650000000     0.660730000000     0.234940000000    -0.188293   
N29      N      0.777920000000     0.261060000000     0.003090000000    -0.209049   
N30      N      0.967110000000     0.484150000000     0.032730000000    -0.191512   
N31      N      0.477580000000     0.946940000000     0.080180000000    -0.205566   
N32      N      0.292690000000     0.766110000000     0.161380000000    -0.185501   
N33      N      0.976730000000     0.619890000000     0.110140000000    -0.201398   
N34      N      0.790350000000     0.617250000000     0.999540000000    -0.18155    
N35      N      0.440830000000     0.538180000000     0.079660000000    -0.210092   
N36      N      0.253710000000     0.572060000000     0.034950000000    -0.191205   
N37      N      0.952120000000     0.973420000000     0.650660000000    -0.200249   
N38      N      0.781070000000     0.739460000000     0.624770000000    -0.198132   
N39      N      0.217510000000     0.247250000000     0.508670000000    -0.198627   
N40      N      0.422060000000     0.443770000000     0.531270000000    -0.167425   
N41      N      0.741440000000     0.077670000000     0.550960000000    -0.205476   
N42      N      0.968000000000     0.130830000000     0.555010000000    -0.196468   
N43      N      0.294440000000     0.173060000000     0.636030000000    -0.199771   
N44      N      0.436590000000     0.095820000000     0.574060000000    -0.193429   
N45      N      0.093850000000     0.754060000000     0.524530000000    -0.203189   
N46      N      0.081430000000     0.944760000000     0.571320000000    -0.187597   
N47      N      0.079100000000     0.246940000000     0.684630000000    -0.179778   
N48      N      0.145960000000     0.466140000000     0.599430000000    -0.192071   
N49      N      0.173640000000     0.148850000000     0.757700000000    -0.201728   
N50      N      0.115170000000     0.158240000000     0.940380000000    -0.193893   
N51      N      0.150610000000     0.111630000000     0.249040000000    -0.201555   
N52      N      0.136360000000     0.083810000000     0.450640000000    -0.194046   
N53      N      0.949950000000     0.938600000000     0.067220000000    -0.206938   
N54      N      0.764700000000     0.711990000000     0.143300000000    -0.186177   
N55      N      0.498220000000     0.370540000000     0.065840000000    -0.206654   
N56      N      0.294710000000     0.203350000000     0.148210000000    -0.179605   
N57      N      0.972560000000     0.081480000000     0.149860000000    -0.195153   
N58      N      0.788690000000     0.116490000000     0.173920000000    -0.193735   
N59      N      0.263290000000     0.090750000000     0.003670000000    -0.180703   
N60      N      0.479840000000     0.109570000000     0.062650000000    -0.184243   
N61      N      0.114560000000     0.927310000000     0.105770000000    -0.209028   
N62      N      0.201790000000     0.800150000000     0.014000000000    -0.188762   
N63      N      0.195180000000     0.281930000000     0.084820000000    -0.205622   
N64      N      0.141610000000     0.471790000000     0.098090000000    -0.185157   
O1       O      0.134500000000     0.196060000000     0.068560000000    -0.431166   
O2       O      0.025410000000     0.011360000000     0.042160000000    -0.433286   
O3       O      0.161310000000     0.156270000000     0.003490000000    -0.458773   
O4       O      0.038480000000     0.058540000000     0.154630000000    -0.421714   
O5       O      0.085700000000     0.087030000000     0.989510000000    -0.459506   
O6       O      0.052600000000     0.131630000000     0.116020000000    -0.421723   
O7       O      0.029380000000     0.978560000000     0.108220000000    -0.436639   
O8       O      0.215920000000     0.219290000000     0.064630000000    -0.376671   
O9       O      0.118600000000     0.136540000000     0.186340000000    -0.437505   
O10      O      0.178270000000     0.074220000000     0.016580000000    -0.46278    
O11      O      0.228200000000     0.134530000000     0.107730000000    -0.433632   
O12      O      0.137130000000     0.009590000000     0.129940000000    -0.446453   
O13      O      0.105750000000     0.988720000000     0.062490000000    -0.468592   
O14      O      0.208490000000     0.189180000000     0.138620000000    -0.400438   
O15      O      0.149150000000     0.084120000000     0.179100000000    -0.452464   
O16      O      0.247680000000     0.157930000000     0.022790000000    -0.41382    
O17      O      0.120260000000     0.096200000000     0.088600000000    -0.546558   
O18      O      0.151930000000     0.074060000000     0.524490000000    -0.462762   
O19      O      0.058560000000     0.157630000000     0.694100000000    -0.387785   
O20      O      0.044850000000     0.131680000000     0.545320000000    -0.472443   
O21      O      0.164430000000     0.216810000000     0.568100000000    -0.432087   
O22      O      0.023910000000     0.131180000000     0.612300000000    -0.421284   
O23      O      0.206080000000     0.173590000000     0.551840000000    -0.405409   
O24      O      0.108700000000     0.208500000000     0.639090000000    -0.494622   
O25      O      0.104790000000     0.110370000000     0.506360000000    -0.445787   
O26      O      0.203990000000     0.122960000000     0.641080000000    -0.447362   
O27      O      0.026480000000     0.054600000000     0.664220000000    -0.433161   
O28      O      0.066980000000     0.015030000000     0.561000000000    -0.460409   
O29      O      0.178230000000     0.191390000000     0.690670000000    -0.461847   
O30      O      0.117720000000     0.109240000000     0.696640000000    -0.430301   
O31      O      0.136240000000     0.027030000000     0.605030000000    -0.425055   
O32      O      0.237330000000     0.205960000000     0.624490000000    -0.413143   
O33      O      0.997860000000     0.033340000000     0.594800000000    -0.446475   
O34      O      0.114290000000     0.113850000000     0.604470000000    -0.570038   
O35      O      0.043110000000     0.566560000000     0.029560000000    -0.444449   
O36      O      0.143650000000     0.723930000000     0.049740000000    -0.445905   
O37      O      0.038210000000     0.595760000000     0.139300000000    -0.436985   
O38      O      0.211900000000     0.672890000000     0.003170000000    -0.439134   
O39      O      0.062780000000     0.660790000000     0.090460000000    -0.472913   
O40      O      0.125890000000     0.637280000000     0.988890000000    -0.431355   
O41      O      0.227610000000     0.747570000000     0.055200000000    -0.435419   
O42      O      0.030530000000     0.519550000000     0.090230000000    -0.445986   
O43      O      0.179770000000     0.579820000000     0.014860000000    -0.430765   
O44      O      0.121600000000     0.674540000000     0.172240000000    -0.429312   
O45      O      0.130030000000     0.538020000000     0.123900000000    -0.451383   
O46      O      0.235630000000     0.685830000000     0.129410000000    -0.443936   
O47      O      0.208600000000     0.743030000000     0.130800000000    -0.428564   
O48      O      0.098490000000     0.509580000000     0.057040000000    -0.428101   
O49      O      0.223630000000     0.613770000000     0.077000000000    -0.451231   
O50      O      0.139310000000     0.610140000000     0.173230000000    -0.464211   
O51      O      0.137810000000     0.629840000000     0.082610000000    -0.516141   
O52      O      0.009120000000     0.510110000000     0.539600000000    -0.416509   
O53      O      0.061390000000     0.672930000000     0.559960000000    -0.446429   
O54      O      0.010730000000     0.538680000000     0.653830000000    -0.442488   
O55      O      0.155790000000     0.660690000000     0.500290000000    -0.43978    
O56      O      0.998690000000     0.593520000000     0.608620000000    -0.454091   
O57      O      0.072410000000     0.597930000000     0.493990000000    -0.446161   
O58      O      0.147550000000     0.722300000000     0.554240000000    -0.446814   
O59      O      0.023760000000     0.478980000000     0.602950000000    -0.441723   
O60      O      0.164010000000     0.581990000000     0.514420000000    -0.414532   
O61      O      0.073600000000     0.629130000000     0.681240000000    -0.429837   
O62      O      0.134060000000     0.532020000000     0.625910000000    -0.451318   
O63      O      0.193190000000     0.686990000000     0.624300000000    -0.456687   
O64      O      0.138090000000     0.714720000000     0.633130000000    -0.426212   
O65      O      0.099760000000     0.500290000000     0.560370000000    -0.461597   
O66      O      0.198600000000     0.626800000000     0.574390000000    -0.480134   
O67      O      0.124440000000     0.594720000000     0.675580000000    -0.450513   
O68      O      0.097810000000     0.601890000000     0.586750000000    -0.513987   
O69      O      0.560180000000     0.134670000000     0.098980000000    -0.41604    
O70      O      0.718400000000     0.053110000000     0.044320000000    -0.486972   
O71      O      0.609080000000     0.089440000000     0.985570000000    -0.467731   
O72      O      0.566430000000     0.984400000000     0.095000000000    -0.493088   
O73      O      0.692820000000     0.106800000000     0.989310000000    -0.447901   
O74      O      0.533030000000     0.033820000000     0.105540000000    -0.415347   
O75      O      0.650510000000     0.995170000000     0.080290000000    -0.482916   
O76      O      0.547840000000     0.102200000000     0.034680000000    -0.442959   
O77      O      0.573570000000     0.103810000000     0.170040000000    -0.435141   
O78      O      0.741660000000     0.192390000000     0.054120000000    -0.468923   
O79      O      0.644520000000     0.200360000000     0.066460000000    -0.430365   
O80      O      0.701070000000     0.066010000000     0.148550000000    -0.477003   
O81      O      0.757670000000     0.131420000000     0.106520000000    -0.474777   
O82      O      0.659710000000     0.172860000000     0.133060000000    -0.430268   
O83      O      0.604970000000     0.048520000000     0.169860000000    -0.503006   
O84      O      0.691240000000     0.190510000000     0.998750000000    -0.456208   
O85      O      0.643960000000     0.095910000000     0.072960000000    -0.55254    
O86      O      0.517180000000     0.118170000000     0.609330000000    -0.417604   
O87      O      0.552350000000     0.998980000000     0.521130000000    -0.454323   
O88      O      0.576120000000     0.150250000000     0.469510000000    -0.462696   
O89      O      0.543150000000     0.993630000000     0.637330000000    -0.42358    
O90      O      0.537380000000     0.068710000000     0.487840000000    -0.470421   
O91      O      0.508360000000     0.031600000000     0.599100000000    -0.448158   
O92      O      0.601450000000     0.993060000000     0.575400000000    -0.439632   
O93      O      0.513020000000     0.128140000000     0.537210000000    -0.472381   
O94      O      0.552240000000     0.082740000000     0.677210000000    -0.414069   
O95      O      0.658830000000     0.146630000000     0.487760000000    -0.429388   
O96      O      0.596720000000     0.202860000000     0.584300000000    -0.477214   
O97      O      0.686940000000     0.089030000000     0.596220000000    -0.416058   
O98      O      0.662720000000     0.069740000000     0.525820000000    -0.481159   
O99      O      0.628950000000     0.169680000000     0.634260000000    -0.416775   
O100     O      0.631040000000     0.092350000000     0.664660000000    -0.448532   
O101     O      0.658840000000     0.208820000000     0.526670000000    -0.486618   
O102     O      0.594310000000     0.100270000000     0.563160000000    -0.5898     
O103     O      0.585700000000     0.433470000000     0.053480000000    -0.410355   
O104     O      0.599380000000     0.658200000000     0.068370000000    -0.468549   
O105     O      0.493060000000     0.500130000000     0.089350000000    -0.479874   
O106     O      0.630150000000     0.595610000000     0.993240000000    -0.427879   
O107     O      0.525540000000     0.582030000000     0.111160000000    -0.485581   
O108     O      0.606270000000     0.511310000000     0.988400000000    -0.41852    
O109     O      0.675020000000     0.677310000000     0.042870000000    -0.43409    
O110     O      0.530420000000     0.458730000000     0.047800000000    -0.461088   
O111     O      0.706660000000     0.566280000000     0.025040000000    -0.51509    
O112     O      0.598600000000     0.585700000000     0.176620000000    -0.475275   
O113     O      0.597300000000     0.459250000000     0.129090000000    -0.42283    
O114     O      0.723490000000     0.635470000000     0.100040000000    -0.425506   
O115     O      0.674440000000     0.661390000000     0.130640000000    -0.475524   
O116     O      0.675230000000     0.509220000000     0.099250000000    -0.443159   
O117     O      0.737130000000     0.651740000000     0.015240000000    -0.400413   
O118     O      0.551040000000     0.500460000000     0.163950000000    -0.508454   
O119     O      0.609250000000     0.558760000000     0.081830000000    -0.527456   
O120     O      0.512780000000     0.503560000000     0.536760000000    -0.40861    
O121     O      0.634870000000     0.714230000000     0.576510000000    -0.462065   
O122     O      0.507500000000     0.581960000000     0.564020000000    -0.3839     
O123     O      0.620130000000     0.594590000000     0.486330000000    -0.469735   
O124     O      0.546250000000     0.646270000000     0.612320000000    -0.434776   
O125     O      0.604810000000     0.517620000000     0.513580000000    -0.382724   
O126     O      0.648070000000     0.686140000000     0.514730000000    -0.48714    
O127     O      0.466700000000     0.481560000000     0.597080000000    -0.356814   
O128     O      0.651480000000     0.538290000000     0.600920000000    -0.386098   
O129     O      0.606020000000     0.613140000000     0.673740000000    -0.431813   
O130     O      0.558120000000     0.495030000000     0.634870000000    -0.408895   
O131     O      0.723200000000     0.683590000000     0.571600000000    -0.486079   
O132     O      0.692370000000     0.686920000000     0.635130000000    -0.477735   
O133     O      0.557510000000     0.451720000000     0.577190000000    -0.37763    
O134     O      0.696390000000     0.587640000000     0.544370000000    -0.442239   
O135     O      0.522640000000     0.560780000000     0.653370000000    -0.369937   
O136     O      0.610300000000     0.602510000000     0.579550000000    -0.552005   
O137     O      0.614330000000     0.543740000000     0.861280000000    -0.30226    
O138     O      0.624080000000     0.586430000000     0.294850000000    -0.300793   
O139     O      0.610080000000     0.800560000000     0.572350000000    -0.27952    
O140     O      0.583930000000     0.288260000000     0.596610000000    -0.280211   
O141     O      0.573690000000     0.040600000000     0.866080000000    -0.307564   
O142     O      0.525790000000     0.119450000000     0.342170000000    -0.307386   
O143     O      0.633550000000     0.876640000000     0.069070000000    -0.303054   
O144     O      0.633910000000     0.283510000000     0.165890000000    -0.300799   
O145     O      0.798560000000     0.325690000000     0.477080000000    -0.299553   
O146     O      0.405340000000     0.852870000000     0.643040000000    -0.305663   
O147     O      0.804790000000     0.581210000000     0.642860000000    -0.308264   
O148     O      0.302560000000     0.569520000000     0.511240000000    -0.29941    
O149     O      0.105400000000     0.626270000000     0.885420000000    -0.302524   
O150     O      0.139120000000     0.705420000000     0.369210000000    -0.299297   
O151     O      0.839780000000     0.314260000000     0.061780000000    -0.304557   
O152     O      0.414750000000     0.943210000000     0.131240000000    -0.298582   
O153     O      0.932810000000     0.671040000000     0.092960000000    -0.306837   
O154     O      0.397990000000     0.583360000000     0.104950000000    -0.311018   
O155     O      0.857690000000     0.912790000000     0.650030000000    -0.302776   
O156     O      0.308190000000     0.271510000000     0.521370000000    -0.318613   
O157     O      0.819110000000     0.121980000000     0.600640000000    -0.310395   
O158     O      0.350770000000     0.138520000000     0.663640000000    -0.30145    
O159     O      0.146830000000     0.831450000000     0.570340000000    -0.303836   
O160     O      0.119550000000     0.341050000000     0.701520000000    -0.296895   
O161     O      0.093160000000     0.103940000000     0.798710000000    -0.294253   
O162     O      0.140560000000     0.154580000000     0.311650000000    -0.299402   
O163     O      0.929540000000     0.840020000000     0.090760000000    -0.284902   
O164     O      0.428110000000     0.366930000000     0.108180000000    -0.31485    
O165     O      0.955770000000     0.155240000000     0.151350000000    -0.298025   
O166     O      0.345390000000     0.105700000000     0.973550000000    -0.296678   
O167     O      0.207010000000     0.938580000000     0.088110000000    -0.295063   
O168     O      0.163440000000     0.338870000000     0.032410000000    -0.279394   


