data_structure

_audit_creation_method RASPA-1.0
_audit_creation_date 2023-5-19
_audit_author_name 'Poobodin Mano'

_cell_length_a    38.7819
_cell_length_b    38.9693
_cell_length_c    39.3358
_cell_angle_alpha 90
_cell_angle_beta  90
_cell_angle_gamma 90
_cell_volume      59448.3

_symmetry_cell_setting          triclinic
_symmetry_space_group_name_Hall 'P 1'
_symmetry_space_group_name_H-M  'P 1'
_symmetry_Int_Tables_number     1

_symmetry_equiv_pos_as_xyz 'x,y,z'

loop_
_atom_site_label
_atom_site_type_symbol
_atom_site_fract_x
_atom_site_fract_y
_atom_site_fract_z
_atom_site_charge
C1       C      0.470330000000     0.444590000000     0.065490000000     0.395986   
C2       C      0.453980000000     0.059230000000     0.448270000000     0.39772    
C3       C      0.464460000000     0.068490000000     0.063880000000     0.394039   
C4       C      0.481580000000     0.437860000000     0.436000000000     0.397097   
C5       C      0.068670000000     0.456870000000     0.450730000000     0.387181   
C6       C      0.050430000000     0.072120000000     0.064330000000     0.391851   
C7       C      0.066060000000     0.454400000000     0.057220000000     0.388631   
C8       C      0.045920000000     0.073520000000     0.438370000000     0.393294   
C9       C      0.304390000000     0.325140000000     0.194780000000     0.395958   
C10      C      0.320680000000     0.210530000000     0.311970000000     0.397511   
C11      C      0.293080000000     0.331900000000     0.324240000000     0.39713    
C12      C      0.310160000000     0.201240000000     0.196340000000     0.39389    
C13      C      0.224210000000     0.197650000000     0.195910000000     0.391604   
C14      C      0.205980000000     0.312890000000     0.309500000000     0.387271   
C15      C      0.208620000000     0.315380000000     0.203010000000     0.388342   
C16      C      0.228730000000     0.196250000000     0.321870000000     0.393586   
C17      C      0.196150000000     0.141320000000     0.186550000000     0.0107314  
C18      C      0.078490000000     0.128450000000     0.073700000000     0.0108223  
C19      C      0.072000000000     0.087160000000     0.121510000000     0.0116198  
C20      C      0.115220000000     0.137660000000     0.084870000000    -0.0995404  
C21      C      0.159420000000     0.132110000000     0.175370000000    -0.0994988  
C22      C      0.108790000000     0.093200000000     0.133800000000    -0.0996534  
C23      C      0.150430000000     0.142860000000     0.138990000000     0.0168133  
C24      C      0.124210000000     0.126910000000     0.121250000000     0.0168134  
C25      C      0.202640000000     0.182610000000     0.138740000000     0.0116859  
C26      C      0.165850000000     0.176570000000     0.126440000000    -0.0996723  
C27      C      0.070970000000     0.131090000000     0.427560000000     0.0111248  
C28      C      0.203670000000     0.138680000000     0.332680000000     0.0111347  
C29      C      0.203930000000     0.182540000000     0.378420000000     0.0112918  
C30      C      0.165670000000     0.130100000000     0.338690000000    -0.0991448  
C31      C      0.108970000000     0.139680000000     0.421540000000    -0.099164   
C32      C      0.165930000000     0.176260000000     0.386810000000    -0.0991451  
C33      C      0.122880000000     0.127410000000     0.387230000000     0.0166845  
C34      C      0.151750000000     0.142360000000     0.373000000000     0.0166734  
C35      C      0.070700000000     0.087230000000     0.381810000000     0.0111922  
C36      C      0.108700000000     0.093520000000     0.373420000000    -0.0990622  
C37      C      0.162380000000     0.359400000000     0.202780000000     0.0117244  
C38      C      0.112300000000     0.410380000000     0.057450000000     0.0117531  
C39      C      0.112870000000     0.457030000000     0.100310000000     0.0109225  
C40      C      0.116630000000     0.382500000000     0.084420000000    -0.0993053  
C41      C      0.158050000000     0.387280000000     0.175810000000    -0.0992654  
C42      C      0.117660000000     0.431680000000     0.129680000000    -0.0988273  
C43      C      0.145150000000     0.373930000000     0.141540000000     0.0170267  
C44      C      0.129530000000     0.395840000000     0.118690000000     0.0170348  
C45      C      0.161800000000     0.312750000000     0.159930000000     0.0109131  
C46      C      0.157010000000     0.338100000000     0.130560000000    -0.0987304  
C47      C      0.426830000000     0.072850000000     0.114680000000     0.00930418 
C48      C      0.347740000000     0.196830000000     0.145500000000     0.00927525 
C49      C      0.348310000000     0.150560000000     0.191270000000     0.00987577 
C50      C      0.350780000000     0.168600000000     0.118540000000    -0.100918   
C51      C      0.423680000000     0.101070000000     0.141640000000    -0.101004   
C52      C      0.350770000000     0.123320000000     0.163390000000    -0.101305   
C53      C      0.404140000000     0.131100000000     0.126460000000     0.0197479  
C54      C      0.370300000000     0.138540000000     0.133690000000     0.0196631  
C55      C      0.426260000000     0.119140000000     0.068920000000     0.00987257 
C56      C      0.423690000000     0.146360000000     0.096800000000    -0.101309   
C57      C      0.455860000000     0.380480000000     0.424840000000     0.0119669  
C58      C      0.318810000000     0.389270000000     0.335400000000     0.0120136  
C59      C      0.314770000000     0.346700000000     0.381860000000     0.0125111  
C60      C      0.357740000000     0.393710000000     0.340190000000    -0.0989883  
C61      C      0.416930000000     0.376030000000     0.420040000000    -0.0990218  
C62      C      0.353460000000     0.348210000000     0.389230000000    -0.0991098  
C63      C      0.403070000000     0.390230000000     0.386340000000     0.0169811  
C64      C      0.371600000000     0.379530000000     0.373900000000     0.0169553  
C65      C      0.459900000000     0.423060000000     0.378380000000     0.0125179  
C66      C      0.421210000000     0.421540000000     0.371010000000    -0.0990794  
C67      C      0.364920000000     0.210470000000     0.357720000000     0.0120863  
C68      C      0.409750000000     0.059290000000     0.402510000000     0.0120892  
C69      C      0.404610000000     0.099640000000     0.450830000000     0.0127441  
C70      C      0.407020000000     0.088270000000     0.376330000000    -0.099048   
C71      C      0.367650000000     0.181500000000     0.383910000000    -0.0990807  
C72      C      0.402680000000     0.131040000000     0.427730000000    -0.0991795  
C73      C      0.380750000000     0.147320000000     0.369470000000     0.0173068  
C74      C      0.393910000000     0.122450000000     0.390750000000     0.0172038  
C75      C      0.370050000000     0.170130000000     0.309400000000     0.012822   
C76      C      0.371990000000     0.138720000000     0.332500000000    -0.0993567  
C77      C      0.159780000000     0.310800000000     0.353330000000     0.0112986  
C78      C      0.114860000000     0.458950000000     0.406880000000     0.0113259  
C79      C      0.117200000000     0.415280000000     0.452480000000     0.0118974  
C80      C      0.118070000000     0.431830000000     0.378850000000    -0.0986515  
C81      C      0.156560000000     0.337920000000     0.381360000000    -0.0986119  
C82      C      0.119990000000     0.385590000000     0.427240000000    -0.0990005  
C83      C      0.144250000000     0.373140000000     0.368890000000     0.0171257  
C84      C      0.130390000000     0.396610000000     0.391330000000     0.0171443  
C85      C      0.157450000000     0.354470000000     0.307730000000     0.0118989  
C86      C      0.154650000000     0.384160000000     0.332970000000    -0.0989863  
C87      C      0.339010000000     0.329830000000     0.142380000000     0.00976762 
C88      C      0.435760000000     0.439860000000     0.117920000000     0.00974342 
C89      C      0.430860000000     0.394970000000     0.070440000000     0.00916979 
C90      C      0.428460000000     0.411480000000     0.143750000000    -0.101751   
C91      C      0.346390000000     0.358190000000     0.116560000000    -0.10179    
C92      C      0.422810000000     0.368080000000     0.097780000000    -0.101436   
C93      C      0.369990000000     0.384070000000     0.133080000000     0.0206811  
C94      C      0.404870000000     0.385570000000     0.127260000000     0.0206283  
C95      C      0.343910000000     0.374720000000     0.189860000000     0.00915093 
C96      C      0.352050000000     0.401590000000     0.162530000000    -0.101396   
C97      C      0.470330000000     0.444590000000     0.565490000000     0.395989   
C98      C      0.453980000000     0.059230000000     0.948270000000     0.397715   
C99      C      0.464460000000     0.068490000000     0.563880000000     0.394043   
C100     C      0.481580000000     0.437860000000     0.936000000000     0.397091   
C101     C      0.068670000000     0.456870000000     0.950730000000     0.387177   
C102     C      0.050430000000     0.072120000000     0.564340000000     0.391622   
C103     C      0.066060000000     0.454400000000     0.557220000000     0.388635   
C104     C      0.045920000000     0.073520000000     0.938370000000     0.393288   
C105     C      0.304390000000     0.325140000000     0.694780000000     0.395957   
C106     C      0.320680000000     0.210530000000     0.811960000000     0.397545   
C107     C      0.293080000000     0.331900000000     0.824240000000     0.397127   
C108     C      0.310160000000     0.201240000000     0.696340000000     0.393889   
C109     C      0.224210000000     0.197650000000     0.695910000000     0.391604   
C110     C      0.205980000000     0.312890000000     0.809500000000     0.38727    
C111     C      0.208620000000     0.315380000000     0.703010000000     0.388342   
C112     C      0.228730000000     0.196250000000     0.821870000000     0.393471   
C113     C      0.196150000000     0.141320000000     0.686550000000     0.010736   
C114     C      0.078490000000     0.128450000000     0.573700000000     0.010824   
C115     C      0.072000000000     0.087160000000     0.621510000000     0.011612   
C116     C      0.115220000000     0.137660000000     0.584870000000    -0.099538   
C117     C      0.159420000000     0.132110000000     0.675370000000    -0.0995159  
C118     C      0.108790000000     0.093200000000     0.633800000000    -0.0996474  
C119     C      0.150430000000     0.142860000000     0.639000000000     0.0168367  
C120     C      0.124210000000     0.126910000000     0.621250000000     0.0168065  
C121     C      0.202640000000     0.182610000000     0.638740000000     0.011688   
C122     C      0.165850000000     0.176570000000     0.626440000000    -0.0996828  
C123     C      0.070970000000     0.131090000000     0.927560000000     0.0111246  
C124     C      0.203670000000     0.138680000000     0.832680000000     0.0111287  
C125     C      0.203930000000     0.182540000000     0.878420000000     0.0112862  
C126     C      0.165670000000     0.130100000000     0.838690000000    -0.0991427  
C127     C      0.108970000000     0.139680000000     0.921540000000    -0.0991663  
C128     C      0.165930000000     0.176260000000     0.886810000000    -0.099144   
C129     C      0.122880000000     0.127410000000     0.887230000000     0.016688   
C130     C      0.151750000000     0.142360000000     0.873000000000     0.0166739  
C131     C      0.070700000000     0.087230000000     0.881810000000     0.0111933  
C132     C      0.108700000000     0.093520000000     0.873420000000    -0.0990637  
C133     C      0.162380000000     0.359400000000     0.702780000000     0.0117246  
C134     C      0.112300000000     0.410380000000     0.557450000000     0.0117623  
C135     C      0.112870000000     0.457030000000     0.600310000000     0.0109036  
C136     C      0.116630000000     0.382500000000     0.584420000000    -0.0993067  
C137     C      0.158050000000     0.387280000000     0.675810000000    -0.0992665  
C138     C      0.117660000000     0.431680000000     0.629680000000    -0.0988188  
C139     C      0.145150000000     0.373930000000     0.641540000000     0.0170289  
C140     C      0.129530000000     0.395840000000     0.618690000000     0.0170356  
C141     C      0.161800000000     0.312750000000     0.659930000000     0.0109141  
C142     C      0.157010000000     0.338100000000     0.630560000000    -0.098733   
C143     C      0.426830000000     0.072850000000     0.614680000000     0.00930301 
C144     C      0.347740000000     0.196830000000     0.645500000000     0.00927626 
C145     C      0.348310000000     0.150560000000     0.691270000000     0.00987601 
C146     C      0.350780000000     0.168600000000     0.618540000000    -0.100922   
C147     C      0.423680000000     0.101070000000     0.641640000000    -0.101003   
C148     C      0.350770000000     0.123320000000     0.663390000000    -0.101307   
C149     C      0.404140000000     0.131100000000     0.626460000000     0.0197468  
C150     C      0.370300000000     0.138540000000     0.633690000000     0.0196677  
C151     C      0.426260000000     0.119140000000     0.568920000000     0.00986927 
C152     C      0.423690000000     0.146360000000     0.596800000000    -0.101307   
C153     C      0.455860000000     0.380480000000     0.924840000000     0.011967   
C154     C      0.318810000000     0.389270000000     0.835400000000     0.0120127  
C155     C      0.314770000000     0.346700000000     0.881860000000     0.0125099  
C156     C      0.357740000000     0.393710000000     0.840190000000    -0.0989881  
C157     C      0.416930000000     0.376030000000     0.920040000000    -0.0990241  
C158     C      0.353460000000     0.348210000000     0.889230000000    -0.0991106  
C159     C      0.403070000000     0.390230000000     0.886340000000     0.0169842  
C160     C      0.371600000000     0.379530000000     0.873900000000     0.0169571  
C161     C      0.459900000000     0.423060000000     0.878380000000     0.0125188  
C162     C      0.421210000000     0.421540000000     0.871010000000    -0.0990806  
C163     C      0.364920000000     0.210470000000     0.857720000000     0.0120876  
C164     C      0.409750000000     0.059290000000     0.902510000000     0.0120909  
C165     C      0.404610000000     0.099640000000     0.950830000000     0.012753   
C166     C      0.407020000000     0.088270000000     0.876330000000    -0.0990537  
C167     C      0.367650000000     0.181500000000     0.883910000000    -0.0990731  
C168     C      0.402680000000     0.131040000000     0.927730000000    -0.099212   
C169     C      0.380750000000     0.147320000000     0.869480000000     0.017281   
C170     C      0.393910000000     0.122450000000     0.890750000000     0.0172212  
C171     C      0.370050000000     0.170130000000     0.809400000000     0.0128043  
C172     C      0.371990000000     0.138720000000     0.832500000000    -0.0993332  
C173     C      0.159780000000     0.310800000000     0.853330000000     0.0112993  
C174     C      0.114860000000     0.458950000000     0.906880000000     0.011325   
C175     C      0.117200000000     0.415280000000     0.952480000000     0.0118931  
C176     C      0.118070000000     0.431830000000     0.878850000000    -0.0986513  
C177     C      0.156560000000     0.337920000000     0.881360000000    -0.0986144  
C178     C      0.119990000000     0.385590000000     0.927240000000    -0.0989996  
C179     C      0.144250000000     0.373140000000     0.868890000000     0.0171276  
C180     C      0.130390000000     0.396610000000     0.891330000000     0.0171456  
C181     C      0.157450000000     0.354470000000     0.807730000000     0.0118989  
C182     C      0.154650000000     0.384160000000     0.832970000000    -0.0989872  
C183     C      0.339010000000     0.329830000000     0.642380000000     0.00974535 
C184     C      0.435760000000     0.439860000000     0.617920000000     0.00974441 
C185     C      0.430860000000     0.394970000000     0.570440000000     0.00915704 
C186     C      0.428460000000     0.411480000000     0.643750000000    -0.101751   
C187     C      0.346390000000     0.358190000000     0.616560000000    -0.101781   
C188     C      0.422810000000     0.368080000000     0.597780000000    -0.101409   
C189     C      0.369990000000     0.384070000000     0.633080000000     0.0206767  
C190     C      0.404870000000     0.385570000000     0.627260000000     0.0206265  
C191     C      0.343910000000     0.374720000000     0.689860000000     0.00914617 
C192     C      0.352050000000     0.401590000000     0.662530000000    -0.101376   
C193     C      0.470330000000     0.944600000000     0.065490000000     0.396031   
C194     C      0.453980000000     0.559230000000     0.448270000000     0.397725   
C195     C      0.464460000000     0.568490000000     0.063880000000     0.394102   
C196     C      0.481580000000     0.937850000000     0.436000000000     0.397038   
C197     C      0.068670000000     0.956870000000     0.450730000000     0.387136   
C198     C      0.050430000000     0.572120000000     0.064330000000     0.391854   
C199     C      0.066060000000     0.954400000000     0.057220000000     0.388444   
C200     C      0.045920000000     0.573520000000     0.438370000000     0.393299   
C201     C      0.304390000000     0.825130000000     0.194780000000     0.396168   
C202     C      0.320680000000     0.710530000000     0.311970000000     0.39751    
C203     C      0.293080000000     0.831900000000     0.324240000000     0.396921   
C204     C      0.310160000000     0.701240000000     0.196340000000     0.393889   
C205     C      0.224210000000     0.697640000000     0.195910000000     0.391556   
C206     C      0.205980000000     0.812890000000     0.309500000000     0.387251   
C207     C      0.208620000000     0.815380000000     0.203010000000     0.38832    
C208     C      0.228730000000     0.696250000000     0.321870000000     0.393586   
C209     C      0.196150000000     0.641320000000     0.186550000000     0.0107323  
C210     C      0.078490000000     0.628450000000     0.073700000000     0.0108073  
C211     C      0.072000000000     0.587150000000     0.121510000000     0.0115853  
C212     C      0.115220000000     0.637660000000     0.084870000000    -0.0995333  
C213     C      0.159420000000     0.632110000000     0.175370000000    -0.0995003  
C214     C      0.108790000000     0.593200000000     0.133800000000    -0.0996381  
C215     C      0.150430000000     0.642860000000     0.138990000000     0.0168196  
C216     C      0.124210000000     0.626910000000     0.121250000000     0.0168104  
C217     C      0.202640000000     0.682610000000     0.138740000000     0.0116986  
C218     C      0.165850000000     0.676570000000     0.126440000000    -0.0996767  
C219     C      0.070970000000     0.631090000000     0.427560000000     0.0111264  
C220     C      0.203670000000     0.638680000000     0.332680000000     0.0111342  
C221     C      0.203930000000     0.682540000000     0.378420000000     0.0112911  
C222     C      0.165670000000     0.630100000000     0.338690000000    -0.0991459  
C223     C      0.108970000000     0.639680000000     0.421540000000    -0.0991657  
C224     C      0.165930000000     0.676260000000     0.386810000000    -0.0991449  
C225     C      0.122880000000     0.627410000000     0.387230000000     0.0166885  
C226     C      0.151750000000     0.642360000000     0.373000000000     0.0166754  
C227     C      0.070700000000     0.587230000000     0.381810000000     0.011194   
C228     C      0.108700000000     0.593520000000     0.373420000000    -0.0990652  
C229     C      0.162380000000     0.859400000000     0.202780000000     0.011722   
C230     C      0.112300000000     0.910380000000     0.057450000000     0.0117462  
C231     C      0.112870000000     0.957030000000     0.100310000000     0.0109087  
C232     C      0.116630000000     0.882500000000     0.084420000000    -0.0993043  
C233     C      0.158050000000     0.887280000000     0.175810000000    -0.0992637  
C234     C      0.117660000000     0.931680000000     0.129680000000    -0.0988258  
C235     C      0.145150000000     0.873930000000     0.141540000000     0.0170202  
C236     C      0.129530000000     0.895840000000     0.118690000000     0.0170407  
C237     C      0.161800000000     0.812750000000     0.159930000000     0.0108731  
C238     C      0.157010000000     0.838100000000     0.130560000000    -0.0986923  
C239     C      0.426830000000     0.572850000000     0.114680000000     0.00934491 
C240     C      0.347740000000     0.696830000000     0.145500000000     0.00927541 
C241     C      0.348310000000     0.650560000000     0.191270000000     0.00987662 
C242     C      0.350780000000     0.668600000000     0.118540000000    -0.100921   
C243     C      0.423680000000     0.601070000000     0.141640000000    -0.101019   
C244     C      0.350770000000     0.623320000000     0.163390000000    -0.101308   
C245     C      0.404140000000     0.631100000000     0.126460000000     0.0197467  
C246     C      0.370300000000     0.638540000000     0.133690000000     0.0196676  
C247     C      0.426260000000     0.619130000000     0.068920000000     0.00987726 
C248     C      0.423690000000     0.646360000000     0.096800000000    -0.101294   
C249     C      0.455860000000     0.880490000000     0.424840000000     0.0120579  
C250     C      0.318810000000     0.889270000000     0.335400000000     0.0120033  
C251     C      0.314770000000     0.846700000000     0.381860000000     0.0124975  
C252     C      0.357740000000     0.893710000000     0.340190000000    -0.0989837  
C253     C      0.416930000000     0.876040000000     0.420040000000    -0.0990253  
C254     C      0.353460000000     0.848210000000     0.389230000000    -0.0991034  
C255     C      0.403070000000     0.890230000000     0.386340000000     0.0169961  
C256     C      0.371600000000     0.879530000000     0.373900000000     0.016951   
C257     C      0.459900000000     0.923060000000     0.378380000000     0.0125376  
C258     C      0.421210000000     0.921540000000     0.371010000000    -0.0990917  
C259     C      0.364920000000     0.710470000000     0.357720000000     0.0120862  
C260     C      0.409750000000     0.559290000000     0.402510000000     0.0120862  
C261     C      0.404610000000     0.599640000000     0.450830000000     0.012743   
C262     C      0.407020000000     0.588270000000     0.376330000000    -0.0990473  
C263     C      0.367650000000     0.681500000000     0.383910000000    -0.0990816  
C264     C      0.402680000000     0.631040000000     0.427730000000    -0.0991791  
C265     C      0.380750000000     0.647320000000     0.369470000000     0.0173086  
C266     C      0.393910000000     0.622450000000     0.390750000000     0.0172052  
C267     C      0.370050000000     0.670130000000     0.309400000000     0.012823   
C268     C      0.371990000000     0.638720000000     0.332500000000    -0.0993593  
C269     C      0.159780000000     0.810800000000     0.353330000000     0.0112985  
C270     C      0.114860000000     0.958950000000     0.406880000000     0.0112928  
C271     C      0.117200000000     0.915280000000     0.452480000000     0.0119416  
C272     C      0.118070000000     0.931830000000     0.378850000000    -0.0986366  
C273     C      0.156560000000     0.837920000000     0.381360000000    -0.0986166  
C274     C      0.119990000000     0.885590000000     0.427240000000    -0.0990118  
C275     C      0.144250000000     0.873140000000     0.368890000000     0.0171345  
C276     C      0.130390000000     0.896610000000     0.391330000000     0.0171477  
C277     C      0.157450000000     0.854470000000     0.307730000000     0.0118915  
C278     C      0.154650000000     0.884170000000     0.332970000000    -0.099025   
C279     C      0.339010000000     0.829840000000     0.142380000000     0.00983272 
C280     C      0.435760000000     0.939860000000     0.117920000000     0.00970232 
C281     C      0.430860000000     0.894970000000     0.070440000000     0.00914936 
C282     C      0.428460000000     0.911480000000     0.143750000000    -0.101718   
C283     C      0.346390000000     0.858200000000     0.116560000000    -0.101844   
C284     C      0.422810000000     0.868090000000     0.097780000000    -0.101309   
C285     C      0.369990000000     0.884070000000     0.133080000000     0.020735   
C286     C      0.404870000000     0.885570000000     0.127260000000     0.0205794  
C287     C      0.343910000000     0.874720000000     0.189860000000     0.00916463 
C288     C      0.352050000000     0.901590000000     0.162530000000    -0.101423   
C289     C      0.470330000000     0.944600000000     0.565490000000     0.396035   
C290     C      0.453980000000     0.559230000000     0.948270000000     0.39772    
C291     C      0.464460000000     0.568490000000     0.563880000000     0.394106   
C292     C      0.481580000000     0.937850000000     0.936000000000     0.397031   
C293     C      0.068670000000     0.956870000000     0.950730000000     0.387132   
C294     C      0.050430000000     0.572120000000     0.564340000000     0.391625   
C295     C      0.066060000000     0.954400000000     0.557220000000     0.388448   
C296     C      0.045920000000     0.573520000000     0.938370000000     0.393293   
C297     C      0.304390000000     0.825130000000     0.694780000000     0.396167   
C298     C      0.320680000000     0.710530000000     0.811960000000     0.397544   
C299     C      0.293080000000     0.831900000000     0.824240000000     0.396917   
C300     C      0.310160000000     0.701240000000     0.696340000000     0.393887   
C301     C      0.224210000000     0.697640000000     0.695910000000     0.391555   
C302     C      0.205980000000     0.812890000000     0.809500000000     0.387249   
C303     C      0.208620000000     0.815380000000     0.703010000000     0.38832    
C304     C      0.228730000000     0.696250000000     0.821870000000     0.393471   
C305     C      0.196150000000     0.641320000000     0.686550000000     0.0107369  
C306     C      0.078490000000     0.628450000000     0.573700000000     0.010809   
C307     C      0.072000000000     0.587150000000     0.621510000000     0.0115776  
C308     C      0.115220000000     0.637660000000     0.584870000000    -0.0995309  
C309     C      0.159420000000     0.632110000000     0.675370000000    -0.0995174  
C310     C      0.108790000000     0.593200000000     0.633800000000    -0.099632   
C311     C      0.150430000000     0.642860000000     0.639000000000     0.016843   
C312     C      0.124210000000     0.626910000000     0.621250000000     0.0168034  
C313     C      0.202640000000     0.682610000000     0.638740000000     0.0117007  
C314     C      0.165850000000     0.676570000000     0.626440000000    -0.0996872  
C315     C      0.070970000000     0.631090000000     0.927560000000     0.0111262  
C316     C      0.203670000000     0.638680000000     0.832680000000     0.0111282  
C317     C      0.203930000000     0.682540000000     0.878420000000     0.0112855  
C318     C      0.165670000000     0.630100000000     0.838690000000    -0.0991438  
C319     C      0.108970000000     0.639680000000     0.921540000000    -0.099168   
C320     C      0.165930000000     0.676260000000     0.886810000000    -0.0991439  
C321     C      0.122880000000     0.627410000000     0.887230000000     0.016692   
C322     C      0.151750000000     0.642360000000     0.873000000000     0.0166759  
C323     C      0.070700000000     0.587230000000     0.881810000000     0.0111951  
C324     C      0.108700000000     0.593520000000     0.873420000000    -0.0990667  
C325     C      0.162380000000     0.859400000000     0.702780000000     0.0117221  
C326     C      0.112300000000     0.910380000000     0.557450000000     0.0117553  
C327     C      0.112870000000     0.957030000000     0.600310000000     0.0108898  
C328     C      0.116630000000     0.882500000000     0.584420000000    -0.0993056  
C329     C      0.158050000000     0.887280000000     0.675810000000    -0.0992648  
C330     C      0.117660000000     0.931680000000     0.629680000000    -0.0988173  
C331     C      0.145150000000     0.873930000000     0.641540000000     0.0170224  
C332     C      0.129530000000     0.895840000000     0.618690000000     0.0170415  
C333     C      0.161800000000     0.812750000000     0.659930000000     0.010874   
C334     C      0.157010000000     0.838100000000     0.630560000000    -0.0986949  
C335     C      0.426830000000     0.572850000000     0.614680000000     0.00934374 
C336     C      0.347740000000     0.696830000000     0.645500000000     0.00927642 
C337     C      0.348310000000     0.650560000000     0.691270000000     0.00987686 
C338     C      0.350780000000     0.668600000000     0.618540000000    -0.100925   
C339     C      0.423680000000     0.601070000000     0.641640000000    -0.101018   
C340     C      0.350770000000     0.623320000000     0.663390000000    -0.101311   
C341     C      0.404140000000     0.631100000000     0.626460000000     0.0197456  
C342     C      0.370300000000     0.638540000000     0.633690000000     0.0196723  
C343     C      0.426260000000     0.619130000000     0.568920000000     0.00987396 
C344     C      0.423690000000     0.646360000000     0.596800000000    -0.101292   
C345     C      0.455860000000     0.880490000000     0.924840000000     0.0120581  
C346     C      0.318810000000     0.889270000000     0.835400000000     0.0120024  
C347     C      0.314770000000     0.846700000000     0.881860000000     0.0124964  
C348     C      0.357740000000     0.893710000000     0.840190000000    -0.0989835  
C349     C      0.416930000000     0.876040000000     0.920040000000    -0.0990276  
C350     C      0.353460000000     0.848210000000     0.889230000000    -0.0991042  
C351     C      0.403070000000     0.890230000000     0.886340000000     0.0169992  
C352     C      0.371600000000     0.879530000000     0.873900000000     0.0169528  
C353     C      0.459900000000     0.923060000000     0.878380000000     0.0125385  
C354     C      0.421210000000     0.921540000000     0.871010000000    -0.0990929  
C355     C      0.364920000000     0.710470000000     0.857720000000     0.0120875  
C356     C      0.409750000000     0.559290000000     0.902510000000     0.0120878  
C357     C      0.404610000000     0.599640000000     0.950830000000     0.0127519  
C358     C      0.407020000000     0.588270000000     0.876330000000    -0.099053   
C359     C      0.367650000000     0.681500000000     0.883910000000    -0.0990741  
C360     C      0.402680000000     0.631040000000     0.927730000000    -0.0992116  
C361     C      0.380750000000     0.647320000000     0.869480000000     0.0172827  
C362     C      0.393910000000     0.622450000000     0.890750000000     0.0172226  
C363     C      0.370050000000     0.670130000000     0.809400000000     0.0128053  
C364     C      0.371990000000     0.638720000000     0.832500000000    -0.0993358  
C365     C      0.159780000000     0.810800000000     0.853330000000     0.0112992  
C366     C      0.114860000000     0.958950000000     0.906880000000     0.0112919  
C367     C      0.117200000000     0.915280000000     0.952480000000     0.0119372  
C368     C      0.118070000000     0.931830000000     0.878850000000    -0.0986363  
C369     C      0.156560000000     0.837920000000     0.881360000000    -0.0986191  
C370     C      0.119990000000     0.885590000000     0.927240000000    -0.099011   
C371     C      0.144250000000     0.873140000000     0.868890000000     0.0171363  
C372     C      0.130390000000     0.896610000000     0.891330000000     0.017149   
C373     C      0.157450000000     0.854470000000     0.807730000000     0.0118915  
C374     C      0.154650000000     0.884170000000     0.832970000000    -0.0990258  
C375     C      0.339010000000     0.829840000000     0.642380000000     0.00981049 
C376     C      0.435760000000     0.939860000000     0.617920000000     0.0097033  
C377     C      0.430860000000     0.894970000000     0.570440000000     0.00913663 
C378     C      0.428460000000     0.911480000000     0.643750000000    -0.101719   
C379     C      0.346390000000     0.858200000000     0.616560000000    -0.101835   
C380     C      0.422810000000     0.868090000000     0.597780000000    -0.101282   
C381     C      0.369990000000     0.884070000000     0.633080000000     0.0207306  
C382     C      0.404870000000     0.885570000000     0.627260000000     0.0205776  
C383     C      0.343910000000     0.874720000000     0.689860000000     0.00915987 
C384     C      0.352050000000     0.901590000000     0.662530000000    -0.101402   
C385     C      0.970330000000     0.444590000000     0.065490000000     0.395985   
C386     C      0.953970000000     0.059230000000     0.448270000000     0.397577   
C387     C      0.964460000000     0.068490000000     0.063880000000     0.393903   
C388     C      0.981580000000     0.437860000000     0.436000000000     0.397093   
C389     C      0.568670000000     0.456870000000     0.450730000000     0.387343   
C390     C      0.550440000000     0.072120000000     0.064330000000     0.391856   
C391     C      0.566060000000     0.454400000000     0.057220000000     0.388695   
C392     C      0.545910000000     0.073520000000     0.438370000000     0.393372   
C393     C      0.804390000000     0.325140000000     0.194780000000     0.395961   
C394     C      0.820690000000     0.210530000000     0.311970000000     0.397504   
C395     C      0.793080000000     0.331900000000     0.324240000000     0.397134   
C396     C      0.810160000000     0.201240000000     0.196340000000     0.393942   
C397     C      0.724210000000     0.197650000000     0.195910000000     0.391609   
C398     C      0.705980000000     0.312890000000     0.309500000000     0.387275   
C399     C      0.708620000000     0.315380000000     0.203010000000     0.388347   
C400     C      0.728730000000     0.196250000000     0.321870000000     0.39359    
C401     C      0.696150000000     0.141320000000     0.186550000000     0.0107326  
C402     C      0.578490000000     0.128450000000     0.073700000000     0.010822   
C403     C      0.572000000000     0.087160000000     0.121510000000     0.0116189  
C404     C      0.615220000000     0.137660000000     0.084870000000    -0.0995437  
C405     C      0.659420000000     0.132110000000     0.175370000000    -0.0994972  
C406     C      0.608790000000     0.093200000000     0.133800000000    -0.0996559  
C407     C      0.650430000000     0.142860000000     0.138990000000     0.0167975  
C408     C      0.624210000000     0.126910000000     0.121250000000     0.0168295  
C409     C      0.702640000000     0.182610000000     0.138740000000     0.0117064  
C410     C      0.665860000000     0.176570000000     0.126440000000    -0.0996446  
C411     C      0.570970000000     0.131090000000     0.427560000000     0.0111126  
C412     C      0.703670000000     0.138680000000     0.332680000000     0.0111235  
C413     C      0.703930000000     0.182540000000     0.378420000000     0.0112933  
C414     C      0.665670000000     0.130100000000     0.338690000000    -0.0991463  
C415     C      0.608970000000     0.139680000000     0.421540000000    -0.0991637  
C416     C      0.665930000000     0.176260000000     0.386810000000    -0.0991494  
C417     C      0.622880000000     0.127410000000     0.387230000000     0.0167027  
C418     C      0.651750000000     0.142360000000     0.373000000000     0.0166746  
C419     C      0.570700000000     0.087230000000     0.381810000000     0.0111851  
C420     C      0.608700000000     0.093520000000     0.373420000000    -0.0990975  
C421     C      0.662380000000     0.359400000000     0.202780000000     0.0117248  
C422     C      0.612300000000     0.410380000000     0.057450000000     0.0117662  
C423     C      0.612870000000     0.457030000000     0.100310000000     0.0109372  
C424     C      0.616630000000     0.382500000000     0.084420000000    -0.0993176  
C425     C      0.658050000000     0.387280000000     0.175810000000    -0.0992666  
C426     C      0.617660000000     0.431680000000     0.129680000000    -0.09884    
C427     C      0.645150000000     0.373930000000     0.141540000000     0.0170352  
C428     C      0.629530000000     0.395840000000     0.118690000000     0.0170538  
C429     C      0.661800000000     0.312750000000     0.159930000000     0.0109098  
C430     C      0.657010000000     0.338100000000     0.130560000000    -0.09873    
C431     C      0.926830000000     0.072850000000     0.114680000000     0.00930778 
C432     C      0.847740000000     0.196830000000     0.145500000000     0.00927398 
C433     C      0.848310000000     0.150560000000     0.191270000000     0.00987109 
C434     C      0.850780000000     0.168600000000     0.118540000000    -0.100914   
C435     C      0.923680000000     0.101070000000     0.141640000000    -0.100987   
C436     C      0.850770000000     0.123320000000     0.163390000000    -0.1013     
C437     C      0.904140000000     0.131100000000     0.126460000000     0.0197714  
C438     C      0.870300000000     0.138540000000     0.133690000000     0.0196568  
C439     C      0.926260000000     0.119140000000     0.068920000000     0.00988816 
C440     C      0.923690000000     0.146360000000     0.096800000000    -0.101329   
C441     C      0.955860000000     0.380480000000     0.424840000000     0.01196    
C442     C      0.818810000000     0.389270000000     0.335400000000     0.0120112  
C443     C      0.814770000000     0.346700000000     0.381860000000     0.0125124  
C444     C      0.857740000000     0.393710000000     0.340190000000    -0.0989934  
C445     C      0.916930000000     0.376030000000     0.420040000000    -0.0990213  
C446     C      0.853460000000     0.348210000000     0.389230000000    -0.099114   
C447     C      0.903070000000     0.390230000000     0.386340000000     0.0169989  
C448     C      0.871600000000     0.379530000000     0.373900000000     0.0169573  
C449     C      0.959900000000     0.423060000000     0.378380000000     0.0125157  
C450     C      0.921210000000     0.421540000000     0.371010000000    -0.0991082  
C451     C      0.864920000000     0.210470000000     0.357720000000     0.0120954  
C452     C      0.909750000000     0.059290000000     0.402510000000     0.0121116  
C453     C      0.904610000000     0.099640000000     0.450830000000     0.012765   
C454     C      0.907020000000     0.088270000000     0.376330000000    -0.0990657  
C455     C      0.867650000000     0.181500000000     0.383910000000    -0.0990756  
C456     C      0.902680000000     0.131040000000     0.427730000000    -0.099197   
C457     C      0.880750000000     0.147320000000     0.369470000000     0.0173001  
C458     C      0.893910000000     0.122450000000     0.390750000000     0.0172352  
C459     C      0.870050000000     0.170130000000     0.309400000000     0.0128074  
C460     C      0.871990000000     0.138720000000     0.332500000000    -0.0992968  
C461     C      0.659780000000     0.310800000000     0.353330000000     0.011293   
C462     C      0.614860000000     0.458950000000     0.406880000000     0.0113476  
C463     C      0.617200000000     0.415280000000     0.452480000000     0.0119032  
C464     C      0.618070000000     0.431830000000     0.378850000000    -0.0986901  
C465     C      0.656560000000     0.337920000000     0.381360000000    -0.0986068  
C466     C      0.619990000000     0.385590000000     0.427240000000    -0.0990037  
C467     C      0.644250000000     0.373140000000     0.368890000000     0.0171248  
C468     C      0.630400000000     0.396610000000     0.391330000000     0.0171635  
C469     C      0.657450000000     0.354470000000     0.307730000000     0.0118826  
C470     C      0.654650000000     0.384160000000     0.332970000000    -0.0989453  
C471     C      0.839010000000     0.329830000000     0.142380000000     0.00976168 
C472     C      0.935760000000     0.439860000000     0.117920000000     0.00974859 
C473     C      0.930860000000     0.394970000000     0.070440000000     0.00917524 
C474     C      0.928460000000     0.411480000000     0.143750000000    -0.10173    
C475     C      0.846390000000     0.358190000000     0.116560000000    -0.101783   
C476     C      0.922810000000     0.368080000000     0.097780000000    -0.101448   
C477     C      0.869990000000     0.384070000000     0.133080000000     0.0206717  
C478     C      0.904870000000     0.385570000000     0.127260000000     0.0206461  
C479     C      0.843910000000     0.374720000000     0.189860000000     0.0091109  
C480     C      0.852050000000     0.401590000000     0.162530000000    -0.101378   
C481     C      0.970330000000     0.444590000000     0.565490000000     0.395989   
C482     C      0.953970000000     0.059230000000     0.948270000000     0.397572   
C483     C      0.964460000000     0.068490000000     0.563880000000     0.393907   
C484     C      0.981580000000     0.437860000000     0.936000000000     0.397087   
C485     C      0.568670000000     0.456870000000     0.950730000000     0.387338   
C486     C      0.550440000000     0.072120000000     0.564340000000     0.391627   
C487     C      0.566060000000     0.454400000000     0.557220000000     0.3887     
C488     C      0.545910000000     0.073520000000     0.938370000000     0.393366   
C489     C      0.804390000000     0.325140000000     0.694780000000     0.39596    
C490     C      0.820690000000     0.210530000000     0.811960000000     0.397538   
C491     C      0.793080000000     0.331900000000     0.824240000000     0.397131   
C492     C      0.810160000000     0.201240000000     0.696340000000     0.39394    
C493     C      0.724210000000     0.197650000000     0.695910000000     0.391609   
C494     C      0.705980000000     0.312890000000     0.809500000000     0.387274   
C495     C      0.708620000000     0.315380000000     0.703010000000     0.388347   
C496     C      0.728730000000     0.196250000000     0.821870000000     0.393476   
C497     C      0.696150000000     0.141320000000     0.686550000000     0.0107372  
C498     C      0.578490000000     0.128450000000     0.573700000000     0.0108237  
C499     C      0.572000000000     0.087160000000     0.621510000000     0.0116111  
C500     C      0.615220000000     0.137660000000     0.584870000000    -0.0995412  
C501     C      0.659420000000     0.132110000000     0.675370000000    -0.0995143  
C502     C      0.608790000000     0.093200000000     0.633800000000    -0.0996499  
C503     C      0.650430000000     0.142860000000     0.639000000000     0.016821   
C504     C      0.624210000000     0.126910000000     0.621250000000     0.0168226  
C505     C      0.702640000000     0.182610000000     0.638740000000     0.0117085  
C506     C      0.665860000000     0.176570000000     0.626440000000    -0.0996551  
C507     C      0.570970000000     0.131090000000     0.927560000000     0.0111124  
C508     C      0.703670000000     0.138680000000     0.832680000000     0.0111175  
C509     C      0.703930000000     0.182540000000     0.878420000000     0.0112877  
C510     C      0.665670000000     0.130100000000     0.838690000000    -0.0991442  
C511     C      0.608970000000     0.139680000000     0.921540000000    -0.099166   
C512     C      0.665930000000     0.176260000000     0.886810000000    -0.0991483  
C513     C      0.622880000000     0.127410000000     0.887230000000     0.0167063  
C514     C      0.651750000000     0.142360000000     0.873000000000     0.0166751  
C515     C      0.570700000000     0.087230000000     0.881810000000     0.0111862  
C516     C      0.608700000000     0.093520000000     0.873420000000    -0.099099   
C517     C      0.662380000000     0.359400000000     0.702780000000     0.011725   
C518     C      0.612300000000     0.410380000000     0.557450000000     0.0117754  
C519     C      0.612870000000     0.457030000000     0.600310000000     0.0109183  
C520     C      0.616630000000     0.382500000000     0.584420000000    -0.099319   
C521     C      0.658050000000     0.387280000000     0.675810000000    -0.0992677  
C522     C      0.617660000000     0.431680000000     0.629680000000    -0.0988315  
C523     C      0.645150000000     0.373930000000     0.641540000000     0.0170374  
C524     C      0.629530000000     0.395840000000     0.618690000000     0.0170546  
C525     C      0.661800000000     0.312750000000     0.659930000000     0.0109108  
C526     C      0.657010000000     0.338100000000     0.630560000000    -0.0987326  
C527     C      0.926830000000     0.072850000000     0.614680000000     0.00930662 
C528     C      0.847740000000     0.196830000000     0.645500000000     0.00927499 
C529     C      0.848310000000     0.150560000000     0.691270000000     0.00987133 
C530     C      0.850780000000     0.168600000000     0.618540000000    -0.100918   
C531     C      0.923680000000     0.101070000000     0.641640000000    -0.100986   
C532     C      0.850770000000     0.123320000000     0.663390000000    -0.101302   
C533     C      0.904140000000     0.131100000000     0.626460000000     0.0197703  
C534     C      0.870300000000     0.138540000000     0.633690000000     0.0196615  
C535     C      0.926260000000     0.119140000000     0.568920000000     0.00988486 
C536     C      0.923690000000     0.146360000000     0.596800000000    -0.101327   
C537     C      0.955860000000     0.380480000000     0.924840000000     0.0119602  
C538     C      0.818810000000     0.389270000000     0.835400000000     0.0120103  
C539     C      0.814770000000     0.346700000000     0.881860000000     0.0125112  
C540     C      0.857740000000     0.393710000000     0.840190000000    -0.0989932  
C541     C      0.916930000000     0.376030000000     0.920040000000    -0.0990236  
C542     C      0.853460000000     0.348210000000     0.889230000000    -0.0991148  
C543     C      0.903070000000     0.390230000000     0.886340000000     0.017002   
C544     C      0.871600000000     0.379530000000     0.873900000000     0.016959   
C545     C      0.959900000000     0.423060000000     0.878380000000     0.0125166  
C546     C      0.921210000000     0.421540000000     0.871010000000    -0.0991094  
C547     C      0.864920000000     0.210470000000     0.857720000000     0.0120967  
C548     C      0.909750000000     0.059290000000     0.902510000000     0.0121132  
C549     C      0.904610000000     0.099640000000     0.950830000000     0.0127739  
C550     C      0.907020000000     0.088270000000     0.876330000000    -0.0990715  
C551     C      0.867650000000     0.181500000000     0.883910000000    -0.0990681  
C552     C      0.902680000000     0.131040000000     0.927730000000    -0.0992296  
C553     C      0.880750000000     0.147320000000     0.869480000000     0.0172743  
C554     C      0.893910000000     0.122450000000     0.890750000000     0.0172526  
C555     C      0.870050000000     0.170130000000     0.809400000000     0.0127896  
C556     C      0.871990000000     0.138720000000     0.832500000000    -0.0992733  
C557     C      0.659780000000     0.310800000000     0.853330000000     0.0112936  
C558     C      0.614860000000     0.458950000000     0.906880000000     0.0113467  
C559     C      0.617200000000     0.415280000000     0.952480000000     0.0118989  
C560     C      0.618070000000     0.431830000000     0.878850000000    -0.0986899  
C561     C      0.656560000000     0.337920000000     0.881360000000    -0.0986093  
C562     C      0.619990000000     0.385590000000     0.927240000000    -0.0990028  
C563     C      0.644250000000     0.373140000000     0.868890000000     0.0171266  
C564     C      0.630400000000     0.396610000000     0.891330000000     0.0171648  
C565     C      0.657450000000     0.354470000000     0.807730000000     0.0118826  
C566     C      0.654650000000     0.384160000000     0.832970000000    -0.0989462  
C567     C      0.839010000000     0.329830000000     0.642380000000     0.00973941 
C568     C      0.935760000000     0.439860000000     0.617920000000     0.00974957 
C569     C      0.930860000000     0.394970000000     0.570440000000     0.0091625  
C570     C      0.928460000000     0.411480000000     0.643750000000    -0.101731   
C571     C      0.846390000000     0.358190000000     0.616560000000    -0.101775   
C572     C      0.922810000000     0.368080000000     0.597780000000    -0.101421   
C573     C      0.869990000000     0.384070000000     0.633080000000     0.0206673  
C574     C      0.904870000000     0.385570000000     0.627260000000     0.0206443  
C575     C      0.843910000000     0.374720000000     0.689860000000     0.00910615 
C576     C      0.852050000000     0.401590000000     0.662530000000    -0.101357   
C577     C      0.970330000000     0.944600000000     0.065490000000     0.396031   
C578     C      0.953970000000     0.559230000000     0.448270000000     0.397582   
C579     C      0.964460000000     0.568490000000     0.063880000000     0.393966   
C580     C      0.981580000000     0.937850000000     0.436000000000     0.397034   
C581     C      0.568670000000     0.956870000000     0.450730000000     0.387298   
C582     C      0.550440000000     0.572120000000     0.064330000000     0.39186    
C583     C      0.566060000000     0.954400000000     0.057220000000     0.388509   
C584     C      0.545910000000     0.573520000000     0.438370000000     0.393378   
C585     C      0.804390000000     0.825130000000     0.194780000000     0.396171   
C586     C      0.820690000000     0.710530000000     0.311970000000     0.397503   
C587     C      0.793080000000     0.831900000000     0.324240000000     0.396925   
C588     C      0.810160000000     0.701240000000     0.196340000000     0.39394    
C589     C      0.724210000000     0.697640000000     0.195910000000     0.39156    
C590     C      0.705980000000     0.812890000000     0.309500000000     0.387255   
C591     C      0.708620000000     0.815380000000     0.203010000000     0.388324   
C592     C      0.728730000000     0.696250000000     0.321870000000     0.393591   
C593     C      0.696150000000     0.641320000000     0.186550000000     0.0107335  
C594     C      0.578490000000     0.628450000000     0.073700000000     0.010807   
C595     C      0.572000000000     0.587150000000     0.121510000000     0.0115844  
C596     C      0.615220000000     0.637660000000     0.084870000000    -0.0995365  
C597     C      0.659420000000     0.632110000000     0.175370000000    -0.0994986  
C598     C      0.608790000000     0.593200000000     0.133800000000    -0.0996405  
C599     C      0.650430000000     0.642860000000     0.138990000000     0.0168038  
C600     C      0.624210000000     0.626910000000     0.121250000000     0.0168265  
C601     C      0.702640000000     0.682610000000     0.138740000000     0.0117191  
C602     C      0.665860000000     0.676570000000     0.126440000000    -0.099649   
C603     C      0.570970000000     0.631090000000     0.427560000000     0.0111142  
C604     C      0.703670000000     0.638680000000     0.332680000000     0.011123   
C605     C      0.703930000000     0.682540000000     0.378420000000     0.0112927  
C606     C      0.665670000000     0.630100000000     0.338690000000    -0.0991473  
C607     C      0.608970000000     0.639680000000     0.421540000000    -0.0991654  
C608     C      0.665930000000     0.676260000000     0.386810000000    -0.0991493  
C609     C      0.622880000000     0.627410000000     0.387230000000     0.0167067  
C610     C      0.651750000000     0.642360000000     0.373000000000     0.0166766  
C611     C      0.570700000000     0.587230000000     0.381810000000     0.0111869  
C612     C      0.608700000000     0.593520000000     0.373420000000    -0.0991005  
C613     C      0.662380000000     0.859400000000     0.202780000000     0.0117224  
C614     C      0.612300000000     0.910380000000     0.057450000000     0.0117592  
C615     C      0.612870000000     0.957030000000     0.100310000000     0.0109234  
C616     C      0.616630000000     0.882500000000     0.084420000000    -0.0993165  
C617     C      0.658050000000     0.887280000000     0.175810000000    -0.0992649  
C618     C      0.617660000000     0.931680000000     0.129680000000    -0.0988384  
C619     C      0.645150000000     0.873930000000     0.141540000000     0.0170288  
C620     C      0.629530000000     0.895840000000     0.118690000000     0.0170597  
C621     C      0.661800000000     0.812750000000     0.159930000000     0.0108697  
C622     C      0.657010000000     0.838100000000     0.130560000000    -0.0986919  
C623     C      0.926830000000     0.572850000000     0.114680000000     0.0093485  
C624     C      0.847740000000     0.696830000000     0.145500000000     0.00927414 
C625     C      0.848310000000     0.650560000000     0.191270000000     0.00987194 
C626     C      0.850780000000     0.668600000000     0.118540000000    -0.100917   
C627     C      0.923680000000     0.601070000000     0.141640000000    -0.101001   
C628     C      0.850770000000     0.623320000000     0.163390000000    -0.101303   
C629     C      0.904140000000     0.631100000000     0.126460000000     0.0197701  
C630     C      0.870300000000     0.638540000000     0.133690000000     0.0196614  
C631     C      0.926260000000     0.619130000000     0.068920000000     0.00989283 
C632     C      0.923690000000     0.646360000000     0.096800000000    -0.101314   
C633     C      0.955860000000     0.880490000000     0.424840000000     0.0120511  
C634     C      0.818810000000     0.889270000000     0.335400000000     0.0120008  
C635     C      0.814770000000     0.846700000000     0.381860000000     0.0124988  
C636     C      0.857740000000     0.893710000000     0.340190000000    -0.0989887  
C637     C      0.916930000000     0.876040000000     0.420040000000    -0.0990249  
C638     C      0.853460000000     0.848210000000     0.389230000000    -0.0991076  
C639     C      0.903070000000     0.890230000000     0.386340000000     0.0170139  
C640     C      0.871600000000     0.879530000000     0.373900000000     0.016953   
C641     C      0.959900000000     0.923060000000     0.378380000000     0.0125354  
C642     C      0.921210000000     0.921540000000     0.371010000000    -0.0991205  
C643     C      0.864920000000     0.710470000000     0.357720000000     0.0120953  
C644     C      0.909750000000     0.559290000000     0.402510000000     0.0121085  
C645     C      0.904610000000     0.599640000000     0.450830000000     0.0127639  
C646     C      0.907020000000     0.588270000000     0.376330000000    -0.099065   
C647     C      0.867650000000     0.681500000000     0.383910000000    -0.0990766  
C648     C      0.902680000000     0.631040000000     0.427730000000    -0.0991967  
C649     C      0.880750000000     0.647320000000     0.369470000000     0.0173019  
C650     C      0.893910000000     0.622450000000     0.390750000000     0.0172367  
C651     C      0.870050000000     0.670130000000     0.309400000000     0.0128084  
C652     C      0.871990000000     0.638720000000     0.332500000000    -0.0992994  
C653     C      0.659780000000     0.810800000000     0.353330000000     0.0112928  
C654     C      0.614860000000     0.958950000000     0.406880000000     0.0113144  
C655     C      0.617200000000     0.915280000000     0.452480000000     0.0119474  
C656     C      0.618070000000     0.931830000000     0.378850000000    -0.0986751  
C657     C      0.656560000000     0.837920000000     0.381360000000    -0.0986115  
C658     C      0.619990000000     0.885590000000     0.427240000000    -0.099015   
C659     C      0.644250000000     0.873140000000     0.368890000000     0.0171336  
C660     C      0.630400000000     0.896610000000     0.391330000000     0.0171668  
C661     C      0.657450000000     0.854470000000     0.307730000000     0.0118752  
C662     C      0.654650000000     0.884170000000     0.332970000000    -0.098984   
C663     C      0.839010000000     0.829840000000     0.142380000000     0.00982678 
C664     C      0.935760000000     0.939860000000     0.117920000000     0.0097075  
C665     C      0.930860000000     0.894970000000     0.070440000000     0.0091548  
C666     C      0.928460000000     0.911480000000     0.143750000000    -0.101697   
C667     C      0.846390000000     0.858200000000     0.116560000000    -0.101837   
C668     C      0.922810000000     0.868090000000     0.097780000000    -0.101321   
C669     C      0.869990000000     0.884070000000     0.133080000000     0.0207256  
C670     C      0.904870000000     0.885570000000     0.127260000000     0.0205972  
C671     C      0.843910000000     0.874720000000     0.189860000000     0.00912461 
C672     C      0.852050000000     0.901590000000     0.162530000000    -0.101405   
C673     C      0.970330000000     0.944600000000     0.565490000000     0.396034   
C674     C      0.953970000000     0.559230000000     0.948270000000     0.397577   
C675     C      0.964460000000     0.568490000000     0.563880000000     0.393969   
C676     C      0.981580000000     0.937850000000     0.936000000000     0.397027   
C677     C      0.568670000000     0.956870000000     0.950730000000     0.387293   
C678     C      0.550440000000     0.572120000000     0.564340000000     0.391631   
C679     C      0.566060000000     0.954400000000     0.557220000000     0.388513   
C680     C      0.545910000000     0.573520000000     0.938370000000     0.393372   
C681     C      0.804390000000     0.825130000000     0.694780000000     0.39617    
C682     C      0.820690000000     0.710530000000     0.811960000000     0.397537   
C683     C      0.793080000000     0.831900000000     0.824240000000     0.396921   
C684     C      0.810160000000     0.701240000000     0.696340000000     0.393938   
C685     C      0.724210000000     0.697640000000     0.695910000000     0.39156    
C686     C      0.705980000000     0.812890000000     0.809500000000     0.387254   
C687     C      0.708620000000     0.815380000000     0.703010000000     0.388324   
C688     C      0.728730000000     0.696250000000     0.821870000000     0.393476   
C689     C      0.696150000000     0.641320000000     0.686550000000     0.0107381  
C690     C      0.578490000000     0.628450000000     0.573700000000     0.0108087  
C691     C      0.572000000000     0.587150000000     0.621510000000     0.0115767  
C692     C      0.615220000000     0.637660000000     0.584870000000    -0.0995341  
C693     C      0.659420000000     0.632110000000     0.675370000000    -0.0995157  
C694     C      0.608790000000     0.593200000000     0.633800000000    -0.0996345  
C695     C      0.650430000000     0.642860000000     0.639000000000     0.0168273  
C696     C      0.624210000000     0.626910000000     0.621250000000     0.0168195  
C697     C      0.702640000000     0.682610000000     0.638740000000     0.0117213  
C698     C      0.665860000000     0.676570000000     0.626440000000    -0.0996595  
C699     C      0.570970000000     0.631090000000     0.927560000000     0.0111141  
C700     C      0.703670000000     0.638680000000     0.832680000000     0.0111169  
C701     C      0.703930000000     0.682540000000     0.878420000000     0.011287   
C702     C      0.665670000000     0.630100000000     0.838690000000    -0.0991452  
C703     C      0.608970000000     0.639680000000     0.921540000000    -0.0991677  
C704     C      0.665930000000     0.676260000000     0.886810000000    -0.0991482  
C705     C      0.622880000000     0.627410000000     0.887230000000     0.0167102  
C706     C      0.651750000000     0.642360000000     0.873000000000     0.0166771  
C707     C      0.570700000000     0.587230000000     0.881810000000     0.011188   
C708     C      0.608700000000     0.593520000000     0.873420000000    -0.099102   
C709     C      0.662380000000     0.859400000000     0.702780000000     0.0117225  
C710     C      0.612300000000     0.910380000000     0.557450000000     0.0117684  
C711     C      0.612870000000     0.957030000000     0.600310000000     0.0109045  
C712     C      0.616630000000     0.882500000000     0.584420000000    -0.0993179  
C713     C      0.658050000000     0.887280000000     0.675810000000    -0.099266   
C714     C      0.617660000000     0.931680000000     0.629680000000    -0.09883    
C715     C      0.645150000000     0.873930000000     0.641540000000     0.017031   
C716     C      0.629530000000     0.895840000000     0.618690000000     0.0170605  
C717     C      0.661800000000     0.812750000000     0.659930000000     0.0108707  
C718     C      0.657010000000     0.838100000000     0.630560000000    -0.0986944  
C719     C      0.926830000000     0.572850000000     0.614680000000     0.00934733 
C720     C      0.847740000000     0.696830000000     0.645500000000     0.00927515 
C721     C      0.848310000000     0.650560000000     0.691270000000     0.00987219 
C722     C      0.850780000000     0.668600000000     0.618540000000    -0.10092    
C723     C      0.923680000000     0.601070000000     0.641640000000    -0.101      
C724     C      0.850770000000     0.623320000000     0.663390000000    -0.101305   
C725     C      0.904140000000     0.631100000000     0.626460000000     0.019769   
C726     C      0.870300000000     0.638540000000     0.633690000000     0.019666   
C727     C      0.926260000000     0.619130000000     0.568920000000     0.00988954 
C728     C      0.923690000000     0.646360000000     0.596800000000    -0.101312   
C729     C      0.955860000000     0.880490000000     0.924840000000     0.0120513  
C730     C      0.818810000000     0.889270000000     0.835400000000     0.0119999  
C731     C      0.814770000000     0.846700000000     0.881860000000     0.0124976  
C732     C      0.857740000000     0.893710000000     0.840190000000    -0.0989886  
C733     C      0.916930000000     0.876040000000     0.920040000000    -0.0990272  
C734     C      0.853460000000     0.848210000000     0.889230000000    -0.0991084  
C735     C      0.903070000000     0.890230000000     0.886340000000     0.017017   
C736     C      0.871600000000     0.879530000000     0.873900000000     0.0169547  
C737     C      0.959900000000     0.923060000000     0.878380000000     0.0125363  
C738     C      0.921210000000     0.921540000000     0.871010000000    -0.0991217  
C739     C      0.864920000000     0.710470000000     0.857720000000     0.0120966  
C740     C      0.909750000000     0.559290000000     0.902510000000     0.0121101  
C741     C      0.904610000000     0.599640000000     0.950830000000     0.0127728  
C742     C      0.907020000000     0.588270000000     0.876330000000    -0.0990708  
C743     C      0.867650000000     0.681500000000     0.883910000000    -0.099069   
C744     C      0.902680000000     0.631040000000     0.927730000000    -0.0992292  
C745     C      0.880750000000     0.647320000000     0.869480000000     0.017276   
C746     C      0.893910000000     0.622450000000     0.890750000000     0.017254   
C747     C      0.870050000000     0.670130000000     0.809400000000     0.0127906  
C748     C      0.871990000000     0.638720000000     0.832500000000    -0.0992759  
C749     C      0.659780000000     0.810800000000     0.853330000000     0.0112935  
C750     C      0.614860000000     0.958950000000     0.906880000000     0.0113135  
C751     C      0.617200000000     0.915280000000     0.952480000000     0.011943   
C752     C      0.618070000000     0.931830000000     0.878850000000    -0.0986749  
C753     C      0.656560000000     0.837920000000     0.881360000000    -0.098614   
C754     C      0.619990000000     0.885590000000     0.927240000000    -0.0990141  
C755     C      0.644250000000     0.873140000000     0.868890000000     0.0171354  
C756     C      0.630400000000     0.896610000000     0.891330000000     0.0171681  
C757     C      0.657450000000     0.854470000000     0.807730000000     0.0118752  
C758     C      0.654650000000     0.884170000000     0.832970000000    -0.0989848  
C759     C      0.839010000000     0.829840000000     0.642380000000     0.00980455 
C760     C      0.935760000000     0.939860000000     0.617920000000     0.00970848 
C761     C      0.930860000000     0.894970000000     0.570440000000     0.00914208 
C762     C      0.928460000000     0.911480000000     0.643750000000    -0.101698   
C763     C      0.846390000000     0.858200000000     0.616560000000    -0.101829   
C764     C      0.922810000000     0.868090000000     0.597780000000    -0.101294   
C765     C      0.869990000000     0.884070000000     0.633080000000     0.0207212  
C766     C      0.904870000000     0.885570000000     0.627260000000     0.0205954  
C767     C      0.843910000000     0.874720000000     0.689860000000     0.00911985 
C768     C      0.852050000000     0.901590000000     0.662530000000    -0.101384   
Co1      Co     0.512720000000     0.456550000000     0.502920000000     0.836837   
Co2      Co     0.007630000000     0.058050000000     0.002490000000     0.834371   
Co3      Co     0.510800000000     0.507980000000     0.052730000000     0.837271   
Co4      Co     0.010320000000     0.507050000000     0.452170000000     0.837689   
Co5      Co     0.263860000000     0.261780000000     0.207510000000     0.837154   
Co6      Co     0.264340000000     0.262710000000     0.308070000000     0.838456   
Co7      Co     0.261950000000     0.313210000000     0.257320000000     0.836811   
Co8      Co     0.267020000000     0.211710000000     0.257750000000     0.835059   
Co9      Co     0.512720000000     0.456550000000     0.002920000000     0.836678   
Co10     Co     0.007630000000     0.058050000000     0.502490000000     0.834545   
Co11     Co     0.510800000000     0.507980000000     0.552730000000     0.837252   
Co12     Co     0.010320000000     0.507050000000     0.952170000000     0.837799   
Co13     Co     0.263860000000     0.261780000000     0.707510000000     0.837151   
Co14     Co     0.264340000000     0.262710000000     0.808070000000     0.838379   
Co15     Co     0.261950000000     0.313210000000     0.757320000000     0.836814   
Co16     Co     0.267020000000     0.211710000000     0.757750000000     0.835059   
Co17     Co     0.512720000000     0.956550000000     0.502920000000     0.836947   
Co18     Co     0.007630000000     0.558050000000     0.002490000000     0.834356   
Co19     Co     0.510800000000     0.007980000000     0.052730000000     0.837115   
Co20     Co     0.010320000000     0.007050000000     0.452170000000     0.837496   
Co21     Co     0.263860000000     0.761780000000     0.207510000000     0.837097   
Co22     Co     0.264340000000     0.762710000000     0.308070000000     0.838469   
Co23     Co     0.261950000000     0.813200000000     0.257320000000     0.836687   
Co24     Co     0.267020000000     0.711710000000     0.257750000000     0.835077   
Co25     Co     0.512720000000     0.956550000000     0.002920000000     0.836789   
Co26     Co     0.007630000000     0.558050000000     0.502490000000     0.834531   
Co27     Co     0.510800000000     0.007980000000     0.552730000000     0.837096   
Co28     Co     0.010320000000     0.007050000000     0.952170000000     0.837606   
Co29     Co     0.263860000000     0.761780000000     0.707510000000     0.837094   
Co30     Co     0.264340000000     0.762710000000     0.808070000000     0.838392   
Co31     Co     0.261950000000     0.813200000000     0.757320000000     0.83669    
Co32     Co     0.267020000000     0.711710000000     0.757750000000     0.835077   
Co33     Co     0.012720000000     0.456550000000     0.502920000000     0.836067   
Co34     Co     0.507630000000     0.058050000000     0.002490000000     0.835052   
Co35     Co     0.010800000000     0.507980000000     0.052730000000     0.836573   
Co36     Co     0.510320000000     0.507050000000     0.452170000000     0.838475   
Co37     Co     0.763860000000     0.261780000000     0.207510000000     0.837156   
Co38     Co     0.764340000000     0.262710000000     0.308070000000     0.83844    
Co39     Co     0.761950000000     0.313210000000     0.257320000000     0.836878   
Co40     Co     0.767020000000     0.211710000000     0.257750000000     0.835108   
Co41     Co     0.012720000000     0.456550000000     0.002920000000     0.835909   
Co42     Co     0.507630000000     0.058050000000     0.502490000000     0.835227   
Co43     Co     0.010800000000     0.507980000000     0.552730000000     0.836555   
Co44     Co     0.510320000000     0.507050000000     0.952170000000     0.838585   
Co45     Co     0.763860000000     0.261780000000     0.707510000000     0.837153   
Co46     Co     0.764340000000     0.262710000000     0.808070000000     0.838363   
Co47     Co     0.761950000000     0.313210000000     0.757320000000     0.836881   
Co48     Co     0.767020000000     0.211710000000     0.757750000000     0.835108   
Co49     Co     0.012720000000     0.956550000000     0.502920000000     0.836178   
Co50     Co     0.507630000000     0.558050000000     0.002490000000     0.835038   
Co51     Co     0.010800000000     0.007980000000     0.052730000000     0.836417   
Co52     Co     0.510320000000     0.007050000000     0.452170000000     0.838283   
Co53     Co     0.763860000000     0.761780000000     0.207510000000     0.837099   
Co54     Co     0.764340000000     0.762710000000     0.308070000000     0.838454   
Co55     Co     0.761950000000     0.813200000000     0.257320000000     0.836754   
Co56     Co     0.767020000000     0.711710000000     0.257750000000     0.835126   
Co57     Co     0.012720000000     0.956550000000     0.002920000000     0.836019   
Co58     Co     0.507630000000     0.558050000000     0.502490000000     0.835213   
Co59     Co     0.010800000000     0.007980000000     0.552730000000     0.836398   
Co60     Co     0.510320000000     0.007050000000     0.952170000000     0.838393   
Co61     Co     0.763860000000     0.761780000000     0.707510000000     0.837096   
Co62     Co     0.764340000000     0.762710000000     0.808070000000     0.838377   
Co63     Co     0.761950000000     0.813200000000     0.757320000000     0.836757   
Co64     Co     0.767020000000     0.711710000000     0.757750000000     0.835126   
H1       H      0.157760000000     0.103910000000     0.178740000000     0.0423662  
H2       H      0.060320000000     0.147180000000     0.085330000000     0.0296908  
H3       H      0.220070000000     0.164760000000     0.124850000000     0.0287024  
H4       H      0.167670000000     0.177510000000     0.098330000000     0.0424406  
H5       H      0.116890000000     0.165850000000     0.081490000000     0.0423856  
H6       H      0.106980000000     0.092260000000     0.161910000000     0.0424153  
H7       H      0.197910000000     0.138270000000     0.214600000000     0.0405081  
H8       H      0.076730000000     0.131500000000     0.045640000000     0.0404387  
H9       H      0.149180000000     0.198050000000     0.135130000000     0.0511177  
H10      H      0.125460000000     0.071720000000     0.125110000000     0.0511093  
H11      H      0.210310000000     0.209140000000     0.131590000000     0.0422562  
H12      H      0.054580000000     0.105010000000     0.135400000000     0.0286449  
H13      H      0.140740000000     0.144450000000     0.192960000000     0.0497702  
H14      H      0.133900000000     0.125300000000     0.067280000000     0.0497702  
H15      H      0.064330000000     0.060630000000     0.128650000000     0.04221    
H16      H      0.214330000000     0.122600000000     0.174920000000     0.0297873  
H17      H      0.110560000000     0.167990000000     0.424020000000     0.0424414  
H18      H      0.219620000000     0.121030000000     0.348420000000     0.0285866  
H19      H      0.054750000000     0.104100000000     0.365260000000     0.0284052  
H20      H      0.110130000000     0.092440000000     0.345280000000     0.0423822  
H21      H      0.164060000000     0.101790000000     0.336200000000     0.0424399  
H22      H      0.164490000000     0.177340000000     0.414950000000     0.0424297  
H23      H      0.064660000000     0.136330000000     0.454630000000     0.0412443  
H24      H      0.209980000000     0.133440000000     0.305610000000     0.0412762  
H25      H      0.124380000000     0.072150000000     0.383990000000     0.0507779  
H26      H      0.150260000000     0.197620000000     0.376230000000     0.0508187  
H27      H      0.064220000000     0.060240000000     0.375290000000     0.0414167  
H28      H      0.219880000000     0.165680000000     0.394980000000     0.0284573  
H29      H      0.124710000000     0.127870000000     0.442050000000     0.0509613  
H30      H      0.149930000000     0.141930000000     0.318190000000     0.050942   
H31      H      0.210420000000     0.209530000000     0.384950000000     0.0414432  
H32      H      0.055010000000     0.148730000000     0.411820000000     0.0285274  
H33      H      0.139800000000     0.406020000000     0.187090000000     0.0424308  
H34      H      0.138340000000     0.418070000000     0.048300000000     0.0263117  
H35      H      0.135860000000     0.304300000000     0.168650000000     0.0271238  
H36      H      0.137970000000     0.325800000000     0.113380000000     0.0424652  
H37      H      0.134860000000     0.363750000000     0.073150000000     0.0424612  
H38      H      0.136700000000     0.443980000000     0.146850000000     0.0425268  
H39      H      0.176450000000     0.370590000000     0.224710000000     0.0412615  
H40      H      0.098230000000     0.399190000000     0.035520000000     0.0412145  
H41      H      0.181840000000     0.340700000000     0.116670000000     0.0522603  
H42      H      0.092830000000     0.429070000000     0.143550000000     0.0522646  
H43      H      0.175530000000     0.289650000000     0.150330000000     0.0414345  
H44      H      0.138820000000     0.465480000000     0.091590000000     0.0271481  
H45      H      0.183240000000     0.400270000000     0.171780000000     0.0526855  
H46      H      0.091430000000     0.369520000000     0.088450000000     0.0526275  
H47      H      0.099140000000     0.480120000000     0.109910000000     0.041412   
H48      H      0.136350000000     0.351710000000     0.211940000000     0.0263018  
H49      H      0.412990000000     0.090430000000     0.165380000000     0.0430071  
H50      H      0.373840000000     0.207560000000     0.150440000000     0.0302187  
H51      H      0.399960000000     0.113900000000     0.058880000000     0.0296898  
H52      H      0.413180000000     0.170460000000     0.086390000000     0.0432492  
H53      H      0.361430000000     0.179200000000     0.094770000000     0.0429965  
H54      H      0.361250000000     0.099200000000     0.173790000000     0.0432378  
H55      H      0.442990000000     0.051830000000     0.125220000000     0.041617   
H56      H      0.331600000000     0.217880000000     0.134980000000     0.0416434  
H57      H      0.450230000000     0.153050000000     0.105260000000     0.0520561  
H58      H      0.324210000000     0.116680000000     0.154980000000     0.052069   
H59      H      0.441720000000     0.129950000000     0.047680000000     0.0425229  
H60      H      0.374640000000     0.155750000000     0.201260000000     0.0297012  
H61      H      0.450080000000     0.109740000000     0.148590000000     0.0514193  
H62      H      0.324340000000     0.159960000000     0.111650000000     0.0513645  
H63      H      0.332880000000     0.139780000000     0.212550000000     0.0425388  
H64      H      0.400750000000     0.062070000000     0.109690000000     0.0301911  
H65      H      0.412140000000     0.348040000000     0.422250000000     0.0427648  
H66      H      0.305420000000     0.408530000000     0.351600000000     0.0277498  
H67      H      0.473000000000     0.403600000000     0.362180000000     0.0274819  
H68      H      0.418940000000     0.421860000000     0.342880000000     0.0428398  
H69      H      0.362530000000     0.421710000000     0.337970000000     0.0427273  
H70      H      0.355730000000     0.347880000000     0.417350000000     0.0428721  
H71      H      0.462640000000     0.374790000000     0.451710000000     0.0405022  
H72      H      0.312020000000     0.394970000000     0.308540000000     0.0404886  
H73      H      0.408800000000     0.445100000000     0.381220000000     0.052778   
H74      H      0.365860000000     0.324650000000     0.379000000000     0.0527898  
H75      H      0.469960000000     0.448650000000     0.370820000000     0.0408382  
H76      H      0.301670000000     0.366150000000     0.398060000000     0.0274823  
H77      H      0.403340000000     0.389220000000     0.441220000000     0.0521429  
H78      H      0.371320000000     0.380520000000     0.319010000000     0.0521543  
H79      H      0.304710000000     0.321110000000     0.389420000000     0.040838   
H80      H      0.469260000000     0.361230000000     0.408640000000     0.0277683  
H81      H      0.385100000000     0.191390000000     0.404020000000     0.0427808  
H82      H      0.383340000000     0.049400000000     0.407680000000     0.0272951  
H83      H      0.396770000000     0.179460000000     0.304810000000     0.0270274  
H84      H      0.391780000000     0.121820000000     0.320890000000     0.0428023  
H85      H      0.389580000000     0.078380000000     0.356210000000     0.0427559  
H86      H      0.382890000000     0.147950000000     0.439350000000     0.0427418  
H87      H      0.349680000000     0.231890000000     0.368800000000     0.0399959  
H88      H      0.424990000000     0.037870000000     0.391440000000     0.0399787  
H89      H      0.346780000000     0.125170000000     0.331930000000     0.0538986  
H90      H      0.427900000000     0.144590000000     0.428290000000     0.0538464  
H91      H      0.359240000000     0.162410000000     0.284370000000     0.041201   
H92      H      0.377890000000     0.090310000000     0.455420000000     0.0270352  
H93      H      0.341790000000     0.177110000000     0.395300000000     0.0522378  
H94      H      0.432880000000     0.092660000000     0.364950000000     0.0522351  
H95      H      0.415420000000     0.107360000000     0.475860000000     0.041212   
H96      H      0.391320000000     0.220370000000     0.352550000000     0.0273094  
H97      H      0.138410000000     0.326870000000     0.400230000000     0.0426097  
H98      H      0.141250000000     0.467820000000     0.413710000000     0.0266515  
H99      H      0.130920000000     0.345940000000     0.301010000000     0.0260254  
H100     H      0.135480000000     0.402030000000     0.321770000000     0.0424961  
H101     H      0.136220000000     0.442880000000     0.359970000000     0.0426177  
H102     H      0.139160000000     0.367710000000     0.438440000000     0.042499   
H103     H      0.174050000000     0.288280000000     0.363470000000     0.041033   
H104     H      0.100600000000     0.481480000000     0.396750000000     0.0410082  
H105     H      0.179930000000     0.397520000000     0.334410000000     0.0537332  
H106     H      0.094710000000     0.372240000000     0.425800000000     0.0536877  
H107     H      0.169790000000     0.363960000000     0.284100000000     0.0406912  
H108     H      0.143730000000     0.423810000000     0.459200000000     0.0260696  
H109     H      0.182100000000     0.341210000000     0.393770000000     0.0530354  
H110     H      0.092530000000     0.428540000000     0.366460000000     0.0530088  
H111     H      0.104870000000     0.405790000000     0.476120000000     0.0406722  
H112     H      0.133400000000     0.301930000000     0.346500000000     0.0266159  
H113     H      0.355760000000     0.347170000000     0.092430000000     0.0434464  
H114     H      0.411680000000     0.454740000000     0.113540000000     0.0317985  
H115     H      0.368450000000     0.366700000000     0.202150000000     0.0309825  
H116     H      0.365990000000     0.423510000000     0.173760000000     0.0432597  
H117     H      0.419110000000     0.422480000000     0.167900000000     0.043436   
H118     H      0.408890000000     0.346130000000     0.086580000000     0.043258   
H119     H      0.319890000000     0.312040000000     0.130850000000     0.0420675  
H120     H      0.454860000000     0.457690000000     0.129420000000     0.0420829  
H121     H      0.327300000000     0.412680000000     0.153380000000     0.0509334  
H122     H      0.447580000000     0.357040000000     0.106900000000     0.0509761  
H123     H      0.327770000000     0.387080000000     0.209760000000     0.0405543  
H124     H      0.406290000000     0.402960000000     0.058190000000     0.0309553  
H125     H      0.321620000000     0.370900000000     0.109840000000     0.0513815  
H126     H      0.453260000000     0.398810000000     0.150430000000     0.0513818  
H127     H      0.446970000000     0.382640000000     0.050510000000     0.0405341  
H128     H      0.363050000000     0.314910000000     0.146790000000     0.0318084  
H129     H      0.157760000000     0.103910000000     0.678740000000     0.0423701  
H130     H      0.060320000000     0.147180000000     0.585330000000     0.0296942  
H131     H      0.220070000000     0.164760000000     0.624850000000     0.0287078  
H132     H      0.167670000000     0.177510000000     0.598330000000     0.0424518  
H133     H      0.116890000000     0.165850000000     0.581490000000     0.0423939  
H134     H      0.106980000000     0.092260000000     0.661910000000     0.0424128  
H135     H      0.197910000000     0.138270000000     0.714600000000     0.0405066  
H136     H      0.076730000000     0.131500000000     0.545640000000     0.0404574  
H137     H      0.149180000000     0.198050000000     0.635130000000     0.0511217  
H138     H      0.125460000000     0.071720000000     0.625110000000     0.0511124  
H139     H      0.210310000000     0.209140000000     0.631590000000     0.0422605  
H140     H      0.054580000000     0.105010000000     0.635400000000     0.0286448  
H141     H      0.140740000000     0.144450000000     0.692960000000     0.0497723  
H142     H      0.133900000000     0.125300000000     0.567280000000     0.0497857  
H143     H      0.064330000000     0.060630000000     0.628650000000     0.0422093  
H144     H      0.214330000000     0.122600000000     0.674920000000     0.0297878  
H145     H      0.110560000000     0.167990000000     0.924020000000     0.0424515  
H146     H      0.219620000000     0.121030000000     0.848420000000     0.0285924  
H147     H      0.054750000000     0.104100000000     0.865260000000     0.0284044  
H148     H      0.110130000000     0.092440000000     0.845280000000     0.0423818  
H149     H      0.164060000000     0.101790000000     0.836200000000     0.0424401  
H150     H      0.164490000000     0.177340000000     0.914950000000     0.0424401  
H151     H      0.064660000000     0.136330000000     0.954630000000     0.0412639  
H152     H      0.209980000000     0.133440000000     0.805610000000     0.0412791  
H153     H      0.124380000000     0.072150000000     0.883990000000     0.0507824  
H154     H      0.150260000000     0.197620000000     0.876230000000     0.0508211  
H155     H      0.064220000000     0.060240000000     0.875290000000     0.041416   
H156     H      0.219880000000     0.165680000000     0.894980000000     0.0284696  
H157     H      0.124710000000     0.127870000000     0.942050000000     0.0509782  
H158     H      0.149930000000     0.141930000000     0.818190000000     0.0509406  
H159     H      0.210420000000     0.209530000000     0.884950000000     0.0414589  
H160     H      0.055010000000     0.148730000000     0.911820000000     0.0285327  
H161     H      0.139800000000     0.406020000000     0.687090000000     0.0424305  
H162     H      0.138340000000     0.418070000000     0.548290000000     0.0263248  
H163     H      0.135860000000     0.304300000000     0.668650000000     0.027124   
H164     H      0.137970000000     0.325800000000     0.613380000000     0.0424713  
H165     H      0.134860000000     0.363750000000     0.573150000000     0.0424736  
H166     H      0.136700000000     0.443980000000     0.646850000000     0.0425265  
H167     H      0.176450000000     0.370590000000     0.724710000000     0.041261   
H168     H      0.098230000000     0.399190000000     0.535520000000     0.0412377  
H169     H      0.181840000000     0.340700000000     0.616670000000     0.0522677  
H170     H      0.092830000000     0.429070000000     0.643550000000     0.0522624  
H171     H      0.175530000000     0.289650000000     0.650330000000     0.041437   
H172     H      0.138820000000     0.465480000000     0.591590000000     0.0271611  
H173     H      0.183240000000     0.400270000000     0.671780000000     0.0526874  
H174     H      0.091430000000     0.369520000000     0.588450000000     0.0526334  
H175     H      0.099140000000     0.480120000000     0.609900000000     0.0414255  
H176     H      0.136350000000     0.351710000000     0.711940000000     0.0263009  
H177     H      0.412990000000     0.090430000000     0.665380000000     0.0430063  
H178     H      0.373840000000     0.207560000000     0.650440000000     0.0302198  
H179     H      0.399960000000     0.113900000000     0.558880000000     0.0297082  
H180     H      0.413180000000     0.170460000000     0.586390000000     0.0432574  
H181     H      0.361430000000     0.179200000000     0.594770000000     0.0430069  
H182     H      0.361250000000     0.099200000000     0.673790000000     0.0432389  
H183     H      0.442990000000     0.051830000000     0.625220000000     0.041617   
H184     H      0.331600000000     0.217880000000     0.634980000000     0.0416473  
H185     H      0.450230000000     0.153050000000     0.605260000000     0.0520583  
H186     H      0.324210000000     0.116680000000     0.654980000000     0.0520722  
H187     H      0.441720000000     0.129950000000     0.547680000000     0.0425425  
H188     H      0.374640000000     0.155750000000     0.701260000000     0.0297002  
H189     H      0.450080000000     0.109740000000     0.648590000000     0.0514178  
H190     H      0.324340000000     0.159960000000     0.611650000000     0.0513728  
H191     H      0.332880000000     0.139780000000     0.712550000000     0.042539   
H192     H      0.400750000000     0.062070000000     0.609690000000     0.0301969  
H193     H      0.412140000000     0.348040000000     0.922250000000     0.0427746  
H194     H      0.305420000000     0.408530000000     0.851600000000     0.0277532  
H195     H      0.473000000000     0.403600000000     0.862180000000     0.0274812  
H196     H      0.418940000000     0.421860000000     0.842880000000     0.0428392  
H197     H      0.362530000000     0.421710000000     0.837970000000     0.042728   
H198     H      0.355730000000     0.347880000000     0.917350000000     0.0428835  
H199     H      0.462640000000     0.374790000000     0.951710000000     0.0405212  
H200     H      0.312020000000     0.394970000000     0.808540000000     0.0404887  
H201     H      0.408800000000     0.445100000000     0.881220000000     0.0527821  
H202     H      0.365860000000     0.324650000000     0.879000000000     0.0527926  
H203     H      0.469960000000     0.448650000000     0.870820000000     0.0408372  
H204     H      0.301670000000     0.366150000000     0.898060000000     0.0274916  
H205     H      0.403340000000     0.389220000000     0.941220000000     0.0521603  
H206     H      0.371320000000     0.380520000000     0.819010000000     0.0521532  
H207     H      0.304710000000     0.321110000000     0.889420000000     0.0408457  
H208     H      0.469260000000     0.361230000000     0.908640000000     0.0277732  
H209     H      0.385100000000     0.191390000000     0.904020000000     0.0427853  
H210     H      0.383340000000     0.049400000000     0.907680000000     0.0273019  
H211     H      0.396770000000     0.179460000000     0.804810000000     0.0270294  
H212     H      0.391780000000     0.121820000000     0.820890000000     0.0427968  
H213     H      0.389580000000     0.078380000000     0.856210000000     0.0427581  
H214     H      0.382890000000     0.147950000000     0.939340000000     0.0427739  
H215     H      0.349680000000     0.231890000000     0.868800000000     0.0400034  
H216     H      0.424990000000     0.037870000000     0.891440000000     0.0399798  
H217     H      0.346780000000     0.125170000000     0.831930000000     0.0538966  
H218     H      0.427900000000     0.144590000000     0.928290000000     0.0538626  
H219     H      0.359240000000     0.162410000000     0.784370000000     0.041204   
H220     H      0.377890000000     0.090310000000     0.955420000000     0.027051   
H221     H      0.341790000000     0.177110000000     0.895300000000     0.0522455  
H222     H      0.432880000000     0.092660000000     0.864950000000     0.0522362  
H223     H      0.415420000000     0.107360000000     0.975860000000     0.0412375  
H224     H      0.391320000000     0.220370000000     0.852550000000     0.0273098  
H225     H      0.138410000000     0.326870000000     0.900230000000     0.0426172  
H226     H      0.141250000000     0.467820000000     0.913710000000     0.0266599  
H227     H      0.130920000000     0.345940000000     0.801010000000     0.0260246  
H228     H      0.135480000000     0.402030000000     0.821770000000     0.0424956  
H229     H      0.136220000000     0.442880000000     0.859970000000     0.0426182  
H230     H      0.139160000000     0.367710000000     0.938440000000     0.0425121  
H231     H      0.174050000000     0.288280000000     0.863470000000     0.0410365  
H232     H      0.100600000000     0.481480000000     0.896750000000     0.0410102  
H233     H      0.179930000000     0.397520000000     0.834410000000     0.0537346  
H234     H      0.094710000000     0.372240000000     0.925800000000     0.0536952  
H235     H      0.169790000000     0.363960000000     0.784100000000     0.0406907  
H236     H      0.143730000000     0.423810000000     0.959200000000     0.0260908  
H237     H      0.182100000000     0.341210000000     0.893770000000     0.0530433  
H238     H      0.092530000000     0.428540000000     0.866460000000     0.0530079  
H239     H      0.104870000000     0.405790000000     0.976120000000     0.0407025  
H240     H      0.133400000000     0.301930000000     0.846500000000     0.0266167  
H241     H      0.355760000000     0.347170000000     0.592430000000     0.0434553  
H242     H      0.411680000000     0.454740000000     0.613550000000     0.0317981  
H243     H      0.368450000000     0.366700000000     0.702150000000     0.0309833  
H244     H      0.365990000000     0.423510000000     0.673760000000     0.0432564  
H245     H      0.419110000000     0.422480000000     0.667900000000     0.043435   
H246     H      0.408890000000     0.346130000000     0.586570000000     0.0432499  
H247     H      0.319890000000     0.312040000000     0.630860000000     0.042087   
H248     H      0.454860000000     0.457690000000     0.629420000000     0.042082   
H249     H      0.327300000000     0.412680000000     0.653370000000     0.0509243  
H250     H      0.447580000000     0.357040000000     0.606900000000     0.0509749  
H251     H      0.327770000000     0.387080000000     0.709760000000     0.0405567  
H252     H      0.406290000000     0.402960000000     0.558190000000     0.0309738  
H253     H      0.321620000000     0.370900000000     0.609840000000     0.0513867  
H254     H      0.453260000000     0.398810000000     0.650430000000     0.0513815  
H255     H      0.446970000000     0.382640000000     0.550510000000     0.0405537  
H256     H      0.363050000000     0.314910000000     0.646780000000     0.0318111  
H257     H      0.157760000000     0.603910000000     0.178740000000     0.0423768  
H258     H      0.060320000000     0.647180000000     0.085330000000     0.0296944  
H259     H      0.220070000000     0.664760000000     0.124850000000     0.0287017  
H260     H      0.167670000000     0.677510000000     0.098330000000     0.0424427  
H261     H      0.116890000000     0.665850000000     0.081490000000     0.0423842  
H262     H      0.106980000000     0.592260000000     0.161910000000     0.0424217  
H263     H      0.197910000000     0.638270000000     0.214600000000     0.04051    
H264     H      0.076730000000     0.631490000000     0.045640000000     0.0404525  
H265     H      0.149180000000     0.698050000000     0.135130000000     0.0511192  
H266     H      0.125460000000     0.571720000000     0.125110000000     0.0511253  
H267     H      0.210310000000     0.709140000000     0.131590000000     0.0422522  
H268     H      0.054580000000     0.605010000000     0.135400000000     0.0286605  
H269     H      0.140740000000     0.644450000000     0.192960000000     0.0497734  
H270     H      0.133900000000     0.625300000000     0.067280000000     0.0497747  
H271     H      0.064330000000     0.560630000000     0.128650000000     0.0422367  
H272     H      0.214330000000     0.622600000000     0.174920000000     0.0297937  
H273     H      0.110560000000     0.667990000000     0.424020000000     0.0424412  
H274     H      0.219620000000     0.621030000000     0.348420000000     0.0285957  
H275     H      0.054750000000     0.604100000000     0.365260000000     0.0284092  
H276     H      0.110130000000     0.592440000000     0.345280000000     0.0423926  
H277     H      0.164060000000     0.601790000000     0.336200000000     0.042451   
H278     H      0.164490000000     0.677340000000     0.414950000000     0.0424308  
H279     H      0.064660000000     0.636330000000     0.454630000000     0.0412441  
H280     H      0.209980000000     0.633440000000     0.305610000000     0.0412821  
H281     H      0.124380000000     0.572150000000     0.383990000000     0.0507986  
H282     H      0.150260000000     0.697620000000     0.376230000000     0.0508177  
H283     H      0.064220000000     0.560240000000     0.375290000000     0.0414376  
H284     H      0.219880000000     0.665680000000     0.394980000000     0.028461   
H285     H      0.124710000000     0.627870000000     0.442050000000     0.0509676  
H286     H      0.149930000000     0.641930000000     0.318190000000     0.0509447  
H287     H      0.210420000000     0.709530000000     0.384950000000     0.0414434  
H288     H      0.055010000000     0.648730000000     0.411820000000     0.0285262  
H289     H      0.139800000000     0.906020000000     0.187090000000     0.0424389  
H290     H      0.138340000000     0.918070000000     0.048300000000     0.0263219  
H291     H      0.135860000000     0.804300000000     0.168650000000     0.0271336  
H292     H      0.137970000000     0.825790000000     0.113380000000     0.0424447  
H293     H      0.134860000000     0.863750000000     0.073150000000     0.0424636  
H294     H      0.136700000000     0.943980000000     0.146850000000     0.0425416  
H295     H      0.176450000000     0.870590000000     0.224710000000     0.0412678  
H296     H      0.098230000000     0.899190000000     0.035520000000     0.0412186  
H297     H      0.181840000000     0.840700000000     0.116670000000     0.0522541  
H298     H      0.092830000000     0.929070000000     0.143550000000     0.052273   
H299     H      0.175530000000     0.789660000000     0.150330000000     0.0414467  
H300     H      0.138820000000     0.965480000000     0.091590000000     0.0271734  
H301     H      0.183240000000     0.900270000000     0.171780000000     0.0526954  
H302     H      0.091430000000     0.869520000000     0.088450000000     0.0526284  
H303     H      0.099140000000     0.980120000000     0.109910000000     0.041444   
H304     H      0.136350000000     0.851710000000     0.211940000000     0.026304   
H305     H      0.412990000000     0.590430000000     0.165380000000     0.0430201  
H306     H      0.373840000000     0.707560000000     0.150440000000     0.0302169  
H307     H      0.399960000000     0.613900000000     0.058880000000     0.0296915  
H308     H      0.413180000000     0.670460000000     0.086390000000     0.0432428  
H309     H      0.361430000000     0.679200000000     0.094770000000     0.0429973  
H310     H      0.361250000000     0.599200000000     0.173790000000     0.0432492  
H311     H      0.442990000000     0.551830000000     0.125220000000     0.0416309  
H312     H      0.331600000000     0.717880000000     0.134980000000     0.0416416  
H313     H      0.450230000000     0.653060000000     0.105260000000     0.0520389  
H314     H      0.324210000000     0.616680000000     0.154980000000     0.0520776  
H315     H      0.441720000000     0.629950000000     0.047680000000     0.042519   
H316     H      0.374640000000     0.655750000000     0.201260000000     0.0297024  
H317     H      0.450080000000     0.609740000000     0.148590000000     0.051427   
H318     H      0.324340000000     0.659960000000     0.111650000000     0.0513676  
H319     H      0.332880000000     0.639780000000     0.212550000000     0.0425431  
H320     H      0.400750000000     0.562070000000     0.109690000000     0.0302022  
H321     H      0.412140000000     0.848040000000     0.422250000000     0.0427385  
H322     H      0.305420000000     0.908530000000     0.351600000000     0.0277648  
H323     H      0.473000000000     0.903600000000     0.362180000000     0.0274798  
H324     H      0.418940000000     0.921860000000     0.342880000000     0.042852   
H325     H      0.362530000000     0.921710000000     0.337970000000     0.0427396  
H326     H      0.355730000000     0.847880000000     0.417350000000     0.0428728  
H327     H      0.462640000000     0.874790000000     0.451710000000     0.0404707  
H328     H      0.312020000000     0.894970000000     0.308540000000     0.0405023  
H329     H      0.408800000000     0.945100000000     0.381220000000     0.0528036  
H330     H      0.365860000000     0.824650000000     0.379000000000     0.0527885  
H331     H      0.469960000000     0.948650000000     0.370820000000     0.0408514  
H332     H      0.301670000000     0.866150000000     0.398060000000     0.0274901  
H333     H      0.403340000000     0.889220000000     0.441220000000     0.0521584  
H334     H      0.371320000000     0.880520000000     0.319010000000     0.0521568  
H335     H      0.304710000000     0.821110000000     0.389420000000     0.0408395  
H336     H      0.469260000000     0.861230000000     0.408640000000     0.0277397  
H337     H      0.385100000000     0.691390000000     0.404020000000     0.0427804  
H338     H      0.383340000000     0.549400000000     0.407680000000     0.0273156  
H339     H      0.396770000000     0.679460000000     0.304810000000     0.0270276  
H340     H      0.391780000000     0.621820000000     0.320890000000     0.0428084  
H341     H      0.389580000000     0.578380000000     0.356210000000     0.0427679  
H342     H      0.382890000000     0.647950000000     0.439350000000     0.0427428  
H343     H      0.349680000000     0.731890000000     0.368800000000     0.0399966  
H344     H      0.424990000000     0.537870000000     0.391440000000     0.0400038  
H345     H      0.346780000000     0.625170000000     0.331930000000     0.0539058  
H346     H      0.427900000000     0.644590000000     0.428290000000     0.0538454  
H347     H      0.359240000000     0.662410000000     0.284370000000     0.041203   
H348     H      0.377890000000     0.590310000000     0.455420000000     0.027045   
H349     H      0.341790000000     0.677110000000     0.395300000000     0.0522397  
H350     H      0.432880000000     0.592660000000     0.364950000000     0.052241   
H351     H      0.415420000000     0.607360000000     0.475860000000     0.041215   
H352     H      0.391320000000     0.720370000000     0.352550000000     0.0273087  
H353     H      0.138410000000     0.826870000000     0.400230000000     0.04261    
H354     H      0.141250000000     0.967830000000     0.413710000000     0.0266733  
H355     H      0.130920000000     0.845940000000     0.301010000000     0.0260293  
H356     H      0.135480000000     0.902040000000     0.321770000000     0.0425142  
H357     H      0.136220000000     0.942880000000     0.359970000000     0.0426299  
H358     H      0.139160000000     0.867710000000     0.438440000000     0.0425021  
H359     H      0.174050000000     0.788280000000     0.363470000000     0.0410325  
H360     H      0.100600000000     0.981480000000     0.396750000000     0.0410397  
H361     H      0.179930000000     0.897520000000     0.334410000000     0.053765   
H362     H      0.094710000000     0.872240000000     0.425800000000     0.0536902  
H363     H      0.169790000000     0.863960000000     0.284100000000     0.0406982  
H364     H      0.143730000000     0.923810000000     0.459200000000     0.0260672  
H365     H      0.182100000000     0.841210000000     0.393770000000     0.0530377  
H366     H      0.092530000000     0.928540000000     0.366460000000     0.0530136  
H367     H      0.104870000000     0.905790000000     0.476120000000     0.0406635  
H368     H      0.133400000000     0.801930000000     0.346500000000     0.0266151  
H369     H      0.355760000000     0.847170000000     0.092430000000     0.0434506  
H370     H      0.411680000000     0.954730000000     0.113540000000     0.0318322  
H371     H      0.368450000000     0.866700000000     0.202150000000     0.0309779  
H372     H      0.365990000000     0.923510000000     0.173760000000     0.043279   
H373     H      0.419110000000     0.922480000000     0.167900000000     0.043438   
H374     H      0.408890000000     0.846130000000     0.086580000000     0.0432033  
H375     H      0.319890000000     0.812040000000     0.130850000000     0.0420502  
H376     H      0.454860000000     0.957690000000     0.129420000000     0.0421154  
H377     H      0.327300000000     0.912680000000     0.153380000000     0.0509524  
H378     H      0.447580000000     0.857030000000     0.106900000000     0.0509212  
H379     H      0.327770000000     0.887080000000     0.209760000000     0.0405622  
H380     H      0.406290000000     0.902960000000     0.058190000000     0.0309667  
H381     H      0.321620000000     0.870900000000     0.109840000000     0.0514091  
H382     H      0.453260000000     0.898810000000     0.150430000000     0.0513816  
H383     H      0.446970000000     0.882640000000     0.050510000000     0.0405428  
H384     H      0.363050000000     0.814910000000     0.146790000000     0.0317825  
H385     H      0.157760000000     0.603910000000     0.678740000000     0.0423807  
H386     H      0.060320000000     0.647180000000     0.585330000000     0.0296978  
H387     H      0.220070000000     0.664760000000     0.624850000000     0.0287071  
H388     H      0.167670000000     0.677510000000     0.598330000000     0.0424538  
H389     H      0.116890000000     0.665850000000     0.581490000000     0.0423925  
H390     H      0.106980000000     0.592260000000     0.661910000000     0.0424192  
H391     H      0.197910000000     0.638270000000     0.714600000000     0.0405085  
H392     H      0.076730000000     0.631490000000     0.545640000000     0.0404712  
H393     H      0.149180000000     0.698050000000     0.635130000000     0.0511232  
H394     H      0.125460000000     0.571720000000     0.625110000000     0.0511283  
H395     H      0.210310000000     0.709140000000     0.631590000000     0.0422566  
H396     H      0.054580000000     0.605010000000     0.635400000000     0.0286604  
H397     H      0.140740000000     0.644450000000     0.692960000000     0.0497755  
H398     H      0.133900000000     0.625300000000     0.567280000000     0.0497901  
H399     H      0.064330000000     0.560630000000     0.628650000000     0.0422361  
H400     H      0.214330000000     0.622600000000     0.674920000000     0.0297942  
H401     H      0.110560000000     0.667990000000     0.924020000000     0.0424513  
H402     H      0.219620000000     0.621030000000     0.848420000000     0.0286015  
H403     H      0.054750000000     0.604100000000     0.865260000000     0.0284084  
H404     H      0.110130000000     0.592440000000     0.845280000000     0.0423922  
H405     H      0.164060000000     0.601790000000     0.836200000000     0.0424513  
H406     H      0.164490000000     0.677340000000     0.914950000000     0.0424411  
H407     H      0.064660000000     0.636330000000     0.954630000000     0.0412636  
H408     H      0.209980000000     0.633440000000     0.805610000000     0.041285   
H409     H      0.124380000000     0.572150000000     0.883990000000     0.0508031  
H410     H      0.150260000000     0.697620000000     0.876230000000     0.0508202  
H411     H      0.064220000000     0.560240000000     0.875290000000     0.0414369  
H412     H      0.219880000000     0.665680000000     0.894980000000     0.0284732  
H413     H      0.124710000000     0.627870000000     0.942050000000     0.0509844  
H414     H      0.149930000000     0.641930000000     0.818190000000     0.0509433  
H415     H      0.210420000000     0.709530000000     0.884950000000     0.0414592  
H416     H      0.055010000000     0.648730000000     0.911820000000     0.0285314  
H417     H      0.139800000000     0.906020000000     0.687090000000     0.0424386  
H418     H      0.138340000000     0.918070000000     0.548290000000     0.026335   
H419     H      0.135860000000     0.804300000000     0.668650000000     0.0271339  
H420     H      0.137970000000     0.825790000000     0.613380000000     0.0424508  
H421     H      0.134860000000     0.863750000000     0.573150000000     0.042476   
H422     H      0.136700000000     0.943980000000     0.646850000000     0.0425412  
H423     H      0.176450000000     0.870590000000     0.724710000000     0.0412673  
H424     H      0.098230000000     0.899190000000     0.535520000000     0.0412418  
H425     H      0.181840000000     0.840700000000     0.616670000000     0.0522615  
H426     H      0.092830000000     0.929070000000     0.643550000000     0.0522708  
H427     H      0.175530000000     0.789660000000     0.650330000000     0.0414492  
H428     H      0.138820000000     0.965480000000     0.591590000000     0.0271865  
H429     H      0.183240000000     0.900270000000     0.671780000000     0.0526973  
H430     H      0.091430000000     0.869520000000     0.588450000000     0.0526342  
H431     H      0.099140000000     0.980120000000     0.609900000000     0.0414575  
H432     H      0.136350000000     0.851710000000     0.711940000000     0.0263031  
H433     H      0.412990000000     0.590430000000     0.665380000000     0.0430193  
H434     H      0.373840000000     0.707560000000     0.650440000000     0.0302179  
H435     H      0.399960000000     0.613900000000     0.558880000000     0.0297099  
H436     H      0.413180000000     0.670460000000     0.586390000000     0.043251   
H437     H      0.361430000000     0.679200000000     0.594770000000     0.0430077  
H438     H      0.361250000000     0.599200000000     0.673790000000     0.0432502  
H439     H      0.442990000000     0.551830000000     0.625220000000     0.0416309  
H440     H      0.331600000000     0.717880000000     0.634980000000     0.0416455  
H441     H      0.450230000000     0.653060000000     0.605260000000     0.0520411  
H442     H      0.324210000000     0.616680000000     0.654980000000     0.0520809  
H443     H      0.441720000000     0.629950000000     0.547680000000     0.0425386  
H444     H      0.374640000000     0.655750000000     0.701260000000     0.0297013  
H445     H      0.450080000000     0.609740000000     0.648590000000     0.0514255  
H446     H      0.324340000000     0.659960000000     0.611650000000     0.0513759  
H447     H      0.332880000000     0.639780000000     0.712550000000     0.0425433  
H448     H      0.400750000000     0.562070000000     0.609690000000     0.0302081  
H449     H      0.412140000000     0.848040000000     0.922250000000     0.0427484  
H450     H      0.305420000000     0.908530000000     0.851600000000     0.0277682  
H451     H      0.473000000000     0.903600000000     0.862180000000     0.0274791  
H452     H      0.418940000000     0.921860000000     0.842880000000     0.0428515  
H453     H      0.362530000000     0.921710000000     0.837970000000     0.0427404  
H454     H      0.355730000000     0.847880000000     0.917350000000     0.0428841  
H455     H      0.462640000000     0.874790000000     0.951710000000     0.0404896  
H456     H      0.312020000000     0.894970000000     0.808540000000     0.0405024  
H457     H      0.408800000000     0.945100000000     0.881220000000     0.0528077  
H458     H      0.365860000000     0.824650000000     0.879000000000     0.0527913  
H459     H      0.469960000000     0.948650000000     0.870820000000     0.0408505  
H460     H      0.301670000000     0.866150000000     0.898060000000     0.0274994  
H461     H      0.403340000000     0.889220000000     0.941220000000     0.0521758  
H462     H      0.371320000000     0.880520000000     0.819010000000     0.0521557  
H463     H      0.304710000000     0.821110000000     0.889420000000     0.0408473  
H464     H      0.469260000000     0.861230000000     0.908640000000     0.0277446  
H465     H      0.385100000000     0.691390000000     0.904020000000     0.0427849  
H466     H      0.383340000000     0.549400000000     0.907680000000     0.0273224  
H467     H      0.396770000000     0.679460000000     0.804810000000     0.0270295  
H468     H      0.391780000000     0.621820000000     0.820890000000     0.042803   
H469     H      0.389580000000     0.578380000000     0.856210000000     0.0427701  
H470     H      0.382890000000     0.647950000000     0.939340000000     0.0427749  
H471     H      0.349680000000     0.731890000000     0.868800000000     0.0400041  
H472     H      0.424990000000     0.537870000000     0.891440000000     0.0400049  
H473     H      0.346780000000     0.625170000000     0.831930000000     0.0539039  
H474     H      0.427900000000     0.644590000000     0.928290000000     0.0538616  
H475     H      0.359240000000     0.662410000000     0.784370000000     0.041206   
H476     H      0.377890000000     0.590310000000     0.955420000000     0.0270608  
H477     H      0.341790000000     0.677110000000     0.895300000000     0.0522474  
H478     H      0.432880000000     0.592660000000     0.864950000000     0.0522421  
H479     H      0.415420000000     0.607360000000     0.975860000000     0.0412406  
H480     H      0.391320000000     0.720370000000     0.852550000000     0.0273092  
H481     H      0.138410000000     0.826870000000     0.900230000000     0.0426175  
H482     H      0.141250000000     0.967830000000     0.913710000000     0.0266817  
H483     H      0.130920000000     0.845940000000     0.801010000000     0.0260285  
H484     H      0.135480000000     0.902040000000     0.821770000000     0.0425137  
H485     H      0.136220000000     0.942880000000     0.859970000000     0.0426304  
H486     H      0.139160000000     0.867710000000     0.938440000000     0.0425152  
H487     H      0.174050000000     0.788280000000     0.863470000000     0.041036   
H488     H      0.100600000000     0.981480000000     0.896750000000     0.0410417  
H489     H      0.179930000000     0.897520000000     0.834410000000     0.0537664  
H490     H      0.094710000000     0.872240000000     0.925800000000     0.0536977  
H491     H      0.169790000000     0.863960000000     0.784100000000     0.0406977  
H492     H      0.143730000000     0.923810000000     0.959200000000     0.0260884  
H493     H      0.182100000000     0.841210000000     0.893770000000     0.0530456  
H494     H      0.092530000000     0.928540000000     0.866460000000     0.0530127  
H495     H      0.104870000000     0.905790000000     0.976120000000     0.0406938  
H496     H      0.133400000000     0.801930000000     0.846500000000     0.0266159  
H497     H      0.355760000000     0.847170000000     0.592430000000     0.0434596  
H498     H      0.411680000000     0.954730000000     0.613550000000     0.0318318  
H499     H      0.368450000000     0.866700000000     0.702150000000     0.0309787  
H500     H      0.365990000000     0.923510000000     0.673760000000     0.0432756  
H501     H      0.419110000000     0.922480000000     0.667900000000     0.043437   
H502     H      0.408890000000     0.846130000000     0.586570000000     0.0431953  
H503     H      0.319890000000     0.812040000000     0.630860000000     0.0420696  
H504     H      0.454860000000     0.957690000000     0.629420000000     0.0421144  
H505     H      0.327300000000     0.912680000000     0.653370000000     0.0509433  
H506     H      0.447580000000     0.857030000000     0.606900000000     0.0509201  
H507     H      0.327770000000     0.887080000000     0.709760000000     0.0405646  
H508     H      0.406290000000     0.902960000000     0.558190000000     0.0309851  
H509     H      0.321620000000     0.870900000000     0.609840000000     0.0514143  
H510     H      0.453260000000     0.898810000000     0.650430000000     0.0513813  
H511     H      0.446970000000     0.882640000000     0.550510000000     0.0405624  
H512     H      0.363050000000     0.814910000000     0.646780000000     0.0317852  
H513     H      0.657760000000     0.103910000000     0.178740000000     0.0423718  
H514     H      0.560320000000     0.147180000000     0.085330000000     0.0297686  
H515     H      0.720070000000     0.164760000000     0.124850000000     0.0286932  
H516     H      0.667670000000     0.177510000000     0.098330000000     0.0424365  
H517     H      0.616890000000     0.165850000000     0.081490000000     0.0424046  
H518     H      0.606980000000     0.092260000000     0.161910000000     0.0424421  
H519     H      0.697910000000     0.138270000000     0.214600000000     0.0405111  
H520     H      0.576730000000     0.131500000000     0.045640000000     0.040466   
H521     H      0.649180000000     0.198050000000     0.135130000000     0.0511154  
H522     H      0.625460000000     0.071720000000     0.125110000000     0.0511067  
H523     H      0.710310000000     0.209140000000     0.131590000000     0.0422509  
H524     H      0.554580000000     0.105010000000     0.135400000000     0.0287319  
H525     H      0.640740000000     0.144450000000     0.192960000000     0.0497939  
H526     H      0.633900000000     0.125300000000     0.067280000000     0.0497639  
H527     H      0.564330000000     0.060630000000     0.128650000000     0.0422629  
H528     H      0.714330000000     0.122600000000     0.174920000000     0.029783   
H529     H      0.610560000000     0.167990000000     0.424020000000     0.042463   
H530     H      0.719610000000     0.121030000000     0.348420000000     0.0285871  
H531     H      0.554750000000     0.104100000000     0.365260000000     0.02848    
H532     H      0.610130000000     0.092440000000     0.345280000000     0.0424132  
H533     H      0.664060000000     0.101790000000     0.336200000000     0.0424433  
H534     H      0.664490000000     0.177340000000     0.414950000000     0.0424334  
H535     H      0.564660000000     0.136330000000     0.454630000000     0.0412911  
H536     H      0.709980000000     0.133440000000     0.305610000000     0.0412803  
H537     H      0.624370000000     0.072150000000     0.383990000000     0.0507992  
H538     H      0.650260000000     0.197620000000     0.376230000000     0.0508374  
H539     H      0.564220000000     0.060240000000     0.375290000000     0.0414648  
H540     H      0.719880000000     0.165680000000     0.394980000000     0.0284524  
H541     H      0.624710000000     0.127870000000     0.442050000000     0.0509584  
H542     H      0.649930000000     0.141930000000     0.318190000000     0.0509611  
H543     H      0.710420000000     0.209530000000     0.384950000000     0.0414423  
H544     H      0.555010000000     0.148730000000     0.411820000000     0.0286012  
H545     H      0.639800000000     0.406020000000     0.187090000000     0.0424509  
H546     H      0.638340000000     0.418070000000     0.048300000000     0.0263017  
H547     H      0.635860000000     0.304300000000     0.168650000000     0.0271561  
H548     H      0.637970000000     0.325800000000     0.113380000000     0.042486   
H549     H      0.634860000000     0.363750000000     0.073150000000     0.0424732  
H550     H      0.636700000000     0.443980000000     0.146850000000     0.0425367  
H551     H      0.676460000000     0.370590000000     0.224710000000     0.0412734  
H552     H      0.598230000000     0.399190000000     0.035520000000     0.0412376  
H553     H      0.681840000000     0.340700000000     0.116670000000     0.0522574  
H554     H      0.592830000000     0.429070000000     0.143550000000     0.0523216  
H555     H      0.675530000000     0.289650000000     0.150330000000     0.0414415  
H556     H      0.638820000000     0.465480000000     0.091590000000     0.027136   
H557     H      0.683240000000     0.400270000000     0.171780000000     0.0526816  
H558     H      0.591430000000     0.369520000000     0.088450000000     0.0526868  
H559     H      0.599140000000     0.480120000000     0.109910000000     0.0414261  
H560     H      0.636350000000     0.351710000000     0.211940000000     0.0263326  
H561     H      0.913000000000     0.090430000000     0.165380000000     0.0430383  
H562     H      0.873840000000     0.207560000000     0.150440000000     0.0302431  
H563     H      0.899960000000     0.113900000000     0.058880000000     0.0296879  
H564     H      0.913180000000     0.170460000000     0.086390000000     0.0432812  
H565     H      0.861430000000     0.179200000000     0.094770000000     0.0430008  
H566     H      0.861250000000     0.099200000000     0.173790000000     0.0432428  
H567     H      0.942990000000     0.051830000000     0.125220000000     0.0416568  
H568     H      0.831600000000     0.217880000000     0.134980000000     0.0416498  
H569     H      0.950230000000     0.153050000000     0.105260000000     0.052133   
H570     H      0.824210000000     0.116680000000     0.154980000000     0.0520635  
H571     H      0.941720000000     0.129950000000     0.047680000000     0.0425626  
H572     H      0.874640000000     0.155750000000     0.201260000000     0.0297238  
H573     H      0.950090000000     0.109740000000     0.148590000000     0.0514631  
H574     H      0.824340000000     0.159960000000     0.111650000000     0.0513591  
H575     H      0.832880000000     0.139780000000     0.212550000000     0.0425411  
H576     H      0.900750000000     0.062070000000     0.109690000000     0.0301918  
H577     H      0.912140000000     0.348040000000     0.422250000000     0.0427855  
H578     H      0.805420000000     0.408530000000     0.351600000000     0.0277481  
H579     H      0.973000000000     0.403600000000     0.362180000000     0.0275604  
H580     H      0.918940000000     0.421860000000     0.342880000000     0.0428719  
H581     H      0.862530000000     0.421710000000     0.337970000000     0.0427329  
H582     H      0.855730000000     0.347880000000     0.417350000000     0.0428752  
H583     H      0.962640000000     0.374790000000     0.451710000000     0.0405606  
H584     H      0.812030000000     0.394970000000     0.308540000000     0.0404871  
H585     H      0.908810000000     0.445100000000     0.381220000000     0.0528053  
H586     H      0.865860000000     0.324650000000     0.379000000000     0.0528037  
H587     H      0.969960000000     0.448650000000     0.370820000000     0.0409063  
H588     H      0.801670000000     0.366150000000     0.398060000000     0.0274778  
H589     H      0.903340000000     0.389220000000     0.441220000000     0.0521484  
H590     H      0.871320000000     0.380520000000     0.319010000000     0.0521701  
H591     H      0.804710000000     0.321110000000     0.389420000000     0.040836   
H592     H      0.969260000000     0.361230000000     0.408640000000     0.0278437  
H593     H      0.885100000000     0.191390000000     0.404020000000     0.0428008  
H594     H      0.883340000000     0.049400000000     0.407680000000     0.027287   
H595     H      0.896770000000     0.179460000000     0.304810000000     0.0270673  
H596     H      0.891780000000     0.121820000000     0.320890000000     0.0428151  
H597     H      0.889580000000     0.078380000000     0.356210000000     0.0427711  
H598     H      0.882890000000     0.147950000000     0.439350000000     0.0427525  
H599     H      0.849680000000     0.231890000000     0.368800000000     0.0400024  
H600     H      0.924990000000     0.037870000000     0.391440000000     0.0400007  
H601     H      0.846770000000     0.125170000000     0.331930000000     0.0538655  
H602     H      0.927900000000     0.144590000000     0.428290000000     0.0539101  
H603     H      0.859240000000     0.162410000000     0.284370000000     0.0412104  
H604     H      0.877890000000     0.090310000000     0.455420000000     0.0270252  
H605     H      0.841790000000     0.177110000000     0.395300000000     0.0522343  
H606     H      0.932880000000     0.092660000000     0.364950000000     0.0523041  
H607     H      0.915420000000     0.107360000000     0.475860000000     0.0412196  
H608     H      0.891320000000     0.220370000000     0.352550000000     0.0273407  
H609     H      0.638410000000     0.326870000000     0.400230000000     0.0426302  
H610     H      0.641250000000     0.467820000000     0.413710000000     0.0266363  
H611     H      0.630920000000     0.345940000000     0.301010000000     0.0260636  
H612     H      0.635470000000     0.402030000000     0.321770000000     0.0424946  
H613     H      0.636210000000     0.442880000000     0.359970000000     0.0426492  
H614     H      0.639160000000     0.367710000000     0.438440000000     0.0425073  
H615     H      0.674050000000     0.288280000000     0.363470000000     0.0410404  
H616     H      0.600600000000     0.481480000000     0.396750000000     0.0410243  
H617     H      0.679930000000     0.397520000000     0.334410000000     0.0537235  
H618     H      0.594710000000     0.372240000000     0.425800000000     0.0537507  
H619     H      0.669790000000     0.363960000000     0.284100000000     0.0407014  
H620     H      0.643730000000     0.423810000000     0.459200000000     0.026058   
H621     H      0.682100000000     0.341210000000     0.393770000000     0.0530313  
H622     H      0.592530000000     0.428540000000     0.366460000000     0.0530795  
H623     H      0.604870000000     0.405790000000     0.476120000000     0.0406919  
H624     H      0.633400000000     0.301930000000     0.346500000000     0.0266504  
H625     H      0.855760000000     0.347170000000     0.092430000000     0.0434476  
H626     H      0.911680000000     0.454740000000     0.113540000000     0.0317971  
H627     H      0.868440000000     0.366700000000     0.202150000000     0.0310144  
H628     H      0.865990000000     0.423510000000     0.173760000000     0.0432628  
H629     H      0.919120000000     0.422480000000     0.167900000000     0.043467   
H630     H      0.908890000000     0.346130000000     0.086580000000     0.043282   
H631     H      0.819890000000     0.312040000000     0.130850000000     0.0420692  
H632     H      0.954870000000     0.457690000000     0.129420000000     0.0421436  
H633     H      0.827300000000     0.412680000000     0.153380000000     0.0509268  
H634     H      0.947580000000     0.357040000000     0.106900000000     0.0510428  
H635     H      0.827780000000     0.387080000000     0.209760000000     0.0405605  
H636     H      0.906290000000     0.402960000000     0.058190000000     0.0309534  
H637     H      0.821620000000     0.370900000000     0.109840000000     0.0513759  
H638     H      0.953270000000     0.398810000000     0.150430000000     0.0514238  
H639     H      0.946980000000     0.382640000000     0.050510000000     0.0405857  
H640     H      0.863050000000     0.314910000000     0.146790000000     0.0318263  
H641     H      0.657760000000     0.103910000000     0.678740000000     0.0423757  
H642     H      0.560320000000     0.147180000000     0.585330000000     0.029772   
H643     H      0.720070000000     0.164760000000     0.624850000000     0.0286986  
H644     H      0.667670000000     0.177510000000     0.598330000000     0.0424477  
H645     H      0.616890000000     0.165850000000     0.581490000000     0.0424129  
H646     H      0.606980000000     0.092260000000     0.661910000000     0.0424396  
H647     H      0.697910000000     0.138270000000     0.714600000000     0.0405096  
H648     H      0.576730000000     0.131500000000     0.545640000000     0.0404847  
H649     H      0.649180000000     0.198050000000     0.635130000000     0.0511194  
H650     H      0.625460000000     0.071720000000     0.625110000000     0.0511097  
H651     H      0.710310000000     0.209140000000     0.631590000000     0.0422553  
H652     H      0.554580000000     0.105010000000     0.635400000000     0.0287318  
H653     H      0.640740000000     0.144450000000     0.692960000000     0.049796   
H654     H      0.633900000000     0.125300000000     0.567280000000     0.0497793  
H655     H      0.564330000000     0.060630000000     0.628650000000     0.0422623  
H656     H      0.714330000000     0.122600000000     0.674920000000     0.0297835  
H657     H      0.610560000000     0.167990000000     0.924020000000     0.0424731  
H658     H      0.719610000000     0.121030000000     0.848420000000     0.0285929  
H659     H      0.554750000000     0.104100000000     0.865260000000     0.0284791  
H660     H      0.610130000000     0.092440000000     0.845280000000     0.0424128  
H661     H      0.664060000000     0.101790000000     0.836200000000     0.0424436  
H662     H      0.664490000000     0.177340000000     0.914950000000     0.0424438  
H663     H      0.564660000000     0.136330000000     0.954630000000     0.0413107  
H664     H      0.709980000000     0.133440000000     0.805610000000     0.0412832  
H665     H      0.624370000000     0.072150000000     0.883990000000     0.0508037  
H666     H      0.650260000000     0.197620000000     0.876230000000     0.0508399  
H667     H      0.564220000000     0.060240000000     0.875290000000     0.0414641  
H668     H      0.719880000000     0.165680000000     0.894980000000     0.0284646  
H669     H      0.624710000000     0.127870000000     0.942050000000     0.0509753  
H670     H      0.649930000000     0.141930000000     0.818190000000     0.0509597  
H671     H      0.710420000000     0.209530000000     0.884950000000     0.041458   
H672     H      0.555010000000     0.148730000000     0.911820000000     0.0286065  
H673     H      0.639800000000     0.406020000000     0.687090000000     0.0424506  
H674     H      0.638340000000     0.418070000000     0.548290000000     0.0263148  
H675     H      0.635860000000     0.304300000000     0.668650000000     0.0271563  
H676     H      0.637970000000     0.325800000000     0.613380000000     0.0424922  
H677     H      0.634860000000     0.363750000000     0.573150000000     0.0424856  
H678     H      0.636700000000     0.443980000000     0.646850000000     0.0425364  
H679     H      0.676460000000     0.370590000000     0.724710000000     0.041273   
H680     H      0.598230000000     0.399190000000     0.535520000000     0.0412609  
H681     H      0.681840000000     0.340700000000     0.616670000000     0.0522647  
H682     H      0.592830000000     0.429070000000     0.643550000000     0.0523194  
H683     H      0.675530000000     0.289650000000     0.650330000000     0.041444   
H684     H      0.638820000000     0.465480000000     0.591590000000     0.027149   
H685     H      0.683240000000     0.400270000000     0.671780000000     0.0526835  
H686     H      0.591430000000     0.369520000000     0.588450000000     0.0526926  
H687     H      0.599140000000     0.480120000000     0.609900000000     0.0414396  
H688     H      0.636350000000     0.351710000000     0.711940000000     0.0263317  
H689     H      0.913000000000     0.090430000000     0.665380000000     0.0430375  
H690     H      0.873840000000     0.207560000000     0.650440000000     0.0302442  
H691     H      0.899960000000     0.113900000000     0.558880000000     0.0297063  
H692     H      0.913180000000     0.170460000000     0.586390000000     0.0432894  
H693     H      0.861430000000     0.179200000000     0.594770000000     0.0430112  
H694     H      0.861250000000     0.099200000000     0.673790000000     0.0432439  
H695     H      0.942990000000     0.051830000000     0.625220000000     0.0416569  
H696     H      0.831600000000     0.217880000000     0.634980000000     0.0416537  
H697     H      0.950230000000     0.153050000000     0.605260000000     0.0521352  
H698     H      0.824210000000     0.116680000000     0.654980000000     0.0520668  
H699     H      0.941720000000     0.129950000000     0.547680000000     0.0425822  
H700     H      0.874640000000     0.155750000000     0.701260000000     0.0297227  
H701     H      0.950090000000     0.109740000000     0.648590000000     0.0514617  
H702     H      0.824340000000     0.159960000000     0.611650000000     0.0513674  
H703     H      0.832880000000     0.139780000000     0.712550000000     0.0425413  
H704     H      0.900750000000     0.062070000000     0.609690000000     0.0301977  
H705     H      0.912140000000     0.348040000000     0.922250000000     0.0427954  
H706     H      0.805420000000     0.408530000000     0.851600000000     0.0277516  
H707     H      0.973000000000     0.403600000000     0.862180000000     0.0275596  
H708     H      0.918940000000     0.421860000000     0.842880000000     0.0428713  
H709     H      0.862530000000     0.421710000000     0.837970000000     0.0427337  
H710     H      0.855730000000     0.347880000000     0.917350000000     0.0428865  
H711     H      0.962640000000     0.374790000000     0.951710000000     0.0405795  
H712     H      0.812030000000     0.394970000000     0.808540000000     0.0404872  
H713     H      0.908810000000     0.445100000000     0.881220000000     0.0528094  
H714     H      0.865860000000     0.324650000000     0.879000000000     0.0528065  
H715     H      0.969960000000     0.448650000000     0.870820000000     0.0409053  
H716     H      0.801670000000     0.366150000000     0.898060000000     0.0274871  
H717     H      0.903340000000     0.389220000000     0.941220000000     0.0521658  
H718     H      0.871320000000     0.380520000000     0.819010000000     0.0521691  
H719     H      0.804710000000     0.321110000000     0.889420000000     0.0408437  
H720     H      0.969260000000     0.361230000000     0.908640000000     0.0278486  
H721     H      0.885100000000     0.191390000000     0.904020000000     0.0428053  
H722     H      0.883340000000     0.049400000000     0.907680000000     0.0272938  
H723     H      0.896770000000     0.179460000000     0.804810000000     0.0270693  
H724     H      0.891780000000     0.121820000000     0.820890000000     0.0428096  
H725     H      0.889580000000     0.078380000000     0.856210000000     0.0427732  
H726     H      0.882890000000     0.147950000000     0.939340000000     0.0427846  
H727     H      0.849680000000     0.231890000000     0.868800000000     0.0400099  
H728     H      0.924990000000     0.037870000000     0.891440000000     0.0400017  
H729     H      0.846770000000     0.125170000000     0.831930000000     0.0538636  
H730     H      0.927900000000     0.144590000000     0.928290000000     0.0539263  
H731     H      0.859240000000     0.162410000000     0.784370000000     0.0412134  
H732     H      0.877890000000     0.090310000000     0.955420000000     0.027041   
H733     H      0.841790000000     0.177110000000     0.895300000000     0.0522419  
H734     H      0.932880000000     0.092660000000     0.864950000000     0.0523051  
H735     H      0.915420000000     0.107360000000     0.975860000000     0.0412451  
H736     H      0.891320000000     0.220370000000     0.852550000000     0.0273411  
H737     H      0.638410000000     0.326870000000     0.900230000000     0.0426378  
H738     H      0.641250000000     0.467820000000     0.913710000000     0.0266447  
H739     H      0.630920000000     0.345940000000     0.801010000000     0.0260628  
H740     H      0.635470000000     0.402030000000     0.821770000000     0.0424941  
H741     H      0.636210000000     0.442880000000     0.859970000000     0.0426497  
H742     H      0.639160000000     0.367710000000     0.938440000000     0.0425203  
H743     H      0.674050000000     0.288280000000     0.863470000000     0.0410439  
H744     H      0.600600000000     0.481480000000     0.896750000000     0.0410263  
H745     H      0.679930000000     0.397520000000     0.834410000000     0.0537249  
H746     H      0.594710000000     0.372240000000     0.925800000000     0.0537581  
H747     H      0.669790000000     0.363960000000     0.784100000000     0.0407009  
H748     H      0.643730000000     0.423810000000     0.959200000000     0.0260792  
H749     H      0.682100000000     0.341210000000     0.893770000000     0.0530392  
H750     H      0.592530000000     0.428540000000     0.866460000000     0.0530786  
H751     H      0.604870000000     0.405790000000     0.976120000000     0.0407222  
H752     H      0.633400000000     0.301930000000     0.846500000000     0.0266512  
H753     H      0.855760000000     0.347170000000     0.592430000000     0.0434565  
H754     H      0.911680000000     0.454740000000     0.613550000000     0.0317967  
H755     H      0.868440000000     0.366700000000     0.702150000000     0.0310152  
H756     H      0.865990000000     0.423510000000     0.673760000000     0.0432595  
H757     H      0.919120000000     0.422480000000     0.667900000000     0.043466   
H758     H      0.908890000000     0.346130000000     0.586570000000     0.0432739  
H759     H      0.819890000000     0.312040000000     0.630860000000     0.0420887  
H760     H      0.954870000000     0.457690000000     0.629420000000     0.0421426  
H761     H      0.827300000000     0.412680000000     0.653370000000     0.0509177  
H762     H      0.947580000000     0.357040000000     0.606900000000     0.0510416  
H763     H      0.827780000000     0.387080000000     0.709760000000     0.0405629  
H764     H      0.906290000000     0.402960000000     0.558190000000     0.0309718  
H765     H      0.821620000000     0.370900000000     0.609840000000     0.0513811  
H766     H      0.953270000000     0.398810000000     0.650430000000     0.0514235  
H767     H      0.946980000000     0.382640000000     0.550510000000     0.0406052  
H768     H      0.863050000000     0.314910000000     0.646780000000     0.0318291  
H769     H      0.657760000000     0.603910000000     0.178740000000     0.0423824  
H770     H      0.560320000000     0.647180000000     0.085330000000     0.0297722  
H771     H      0.720070000000     0.664760000000     0.124850000000     0.0286925  
H772     H      0.667670000000     0.677510000000     0.098330000000     0.0424386  
H773     H      0.616890000000     0.665850000000     0.081490000000     0.0424032  
H774     H      0.606980000000     0.592260000000     0.161910000000     0.0424486  
H775     H      0.697910000000     0.638270000000     0.214600000000     0.040513   
H776     H      0.576730000000     0.631490000000     0.045640000000     0.0404798  
H777     H      0.649180000000     0.698050000000     0.135130000000     0.051117   
H778     H      0.625460000000     0.571720000000     0.125110000000     0.0511226  
H779     H      0.710310000000     0.709140000000     0.131590000000     0.042247   
H780     H      0.554580000000     0.605010000000     0.135400000000     0.0287475  
H781     H      0.640740000000     0.644450000000     0.192960000000     0.0497971  
H782     H      0.633900000000     0.625300000000     0.067280000000     0.0497684  
H783     H      0.564330000000     0.560630000000     0.128650000000     0.0422897  
H784     H      0.714330000000     0.622600000000     0.174920000000     0.0297894  
H785     H      0.610560000000     0.667990000000     0.424020000000     0.0424628  
H786     H      0.719610000000     0.621030000000     0.348420000000     0.0285962  
H787     H      0.554750000000     0.604100000000     0.365260000000     0.028484   
H788     H      0.610130000000     0.592440000000     0.345280000000     0.0424237  
H789     H      0.664060000000     0.601790000000     0.336200000000     0.0424545  
H790     H      0.664490000000     0.677340000000     0.414950000000     0.0424344  
H791     H      0.564660000000     0.636330000000     0.454630000000     0.0412909  
H792     H      0.709980000000     0.633440000000     0.305610000000     0.0412862  
H793     H      0.624370000000     0.572150000000     0.383990000000     0.0508199  
H794     H      0.650260000000     0.697620000000     0.376230000000     0.0508365  
H795     H      0.564220000000     0.560240000000     0.375290000000     0.0414857  
H796     H      0.719880000000     0.665680000000     0.394980000000     0.028456   
H797     H      0.624710000000     0.627870000000     0.442050000000     0.0509646  
H798     H      0.649930000000     0.641930000000     0.318190000000     0.0509638  
H799     H      0.710420000000     0.709530000000     0.384950000000     0.0414425  
H800     H      0.555010000000     0.648730000000     0.411820000000     0.0286     
H801     H      0.639800000000     0.906020000000     0.187090000000     0.042459   
H802     H      0.638340000000     0.918070000000     0.048300000000     0.0263119  
H803     H      0.635860000000     0.804300000000     0.168650000000     0.0271659  
H804     H      0.637970000000     0.825790000000     0.113380000000     0.0424656  
H805     H      0.634860000000     0.863750000000     0.073150000000     0.0424755  
H806     H      0.636700000000     0.943980000000     0.146850000000     0.0425515  
H807     H      0.676460000000     0.870590000000     0.224710000000     0.0412798  
H808     H      0.598230000000     0.899190000000     0.035520000000     0.0412417  
H809     H      0.681840000000     0.840700000000     0.116670000000     0.0522511  
H810     H      0.592830000000     0.929070000000     0.143550000000     0.0523299  
H811     H      0.675530000000     0.789660000000     0.150330000000     0.0414538  
H812     H      0.638820000000     0.965480000000     0.091590000000     0.0271613  
H813     H      0.683240000000     0.900270000000     0.171780000000     0.0526915  
H814     H      0.591430000000     0.869520000000     0.088450000000     0.0526877  
H815     H      0.599140000000     0.980120000000     0.109910000000     0.041458   
H816     H      0.636350000000     0.851710000000     0.211940000000     0.0263348  
H817     H      0.913000000000     0.590430000000     0.165380000000     0.0430513  
H818     H      0.873840000000     0.707560000000     0.150440000000     0.0302413  
H819     H      0.899960000000     0.613900000000     0.058880000000     0.0296896  
H820     H      0.913180000000     0.670460000000     0.086390000000     0.0432748  
H821     H      0.861430000000     0.679200000000     0.094770000000     0.0430016  
H822     H      0.861250000000     0.599200000000     0.173790000000     0.0432542  
H823     H      0.942990000000     0.551830000000     0.125220000000     0.0416707  
H824     H      0.831600000000     0.717880000000     0.134980000000     0.041648   
H825     H      0.950230000000     0.653060000000     0.105260000000     0.0521158  
H826     H      0.824210000000     0.616680000000     0.154980000000     0.0520721  
H827     H      0.941720000000     0.629950000000     0.047680000000     0.0425587  
H828     H      0.874640000000     0.655750000000     0.201260000000     0.029725   
H829     H      0.950090000000     0.609740000000     0.148590000000     0.0514708  
H830     H      0.824340000000     0.659960000000     0.111650000000     0.0513622  
H831     H      0.832880000000     0.639780000000     0.212550000000     0.0425454  
H832     H      0.900750000000     0.562070000000     0.109690000000     0.030203   
H833     H      0.912140000000     0.848040000000     0.422250000000     0.0427593  
H834     H      0.805420000000     0.908530000000     0.351600000000     0.0277631  
H835     H      0.973000000000     0.903600000000     0.362180000000     0.0275582  
H836     H      0.918940000000     0.921860000000     0.342880000000     0.0428842  
H837     H      0.862530000000     0.921710000000     0.337970000000     0.0427453  
H838     H      0.855730000000     0.847880000000     0.417350000000     0.0428758  
H839     H      0.962640000000     0.874790000000     0.451710000000     0.040529   
H840     H      0.812030000000     0.894970000000     0.308540000000     0.0405008  
H841     H      0.908810000000     0.945100000000     0.381220000000     0.0528309  
H842     H      0.865860000000     0.824650000000     0.379000000000     0.0528024  
H843     H      0.969960000000     0.948650000000     0.370820000000     0.0409195  
H844     H      0.801670000000     0.866150000000     0.398060000000     0.0274856  
H845     H      0.903340000000     0.889220000000     0.441220000000     0.0521638  
H846     H      0.871320000000     0.880520000000     0.319010000000     0.0521726  
H847     H      0.804710000000     0.821110000000     0.389420000000     0.0408375  
H848     H      0.969260000000     0.861230000000     0.408640000000     0.027815   
H849     H      0.885100000000     0.691390000000     0.404020000000     0.0428004  
H850     H      0.883340000000     0.549400000000     0.407680000000     0.0273075  
H851     H      0.896770000000     0.679460000000     0.304810000000     0.0270675  
H852     H      0.891780000000     0.621820000000     0.320890000000     0.0428212  
H853     H      0.889580000000     0.578380000000     0.356210000000     0.0427831  
H854     H      0.882890000000     0.647950000000     0.439350000000     0.0427535  
H855     H      0.849680000000     0.731890000000     0.368800000000     0.0400031  
H856     H      0.924990000000     0.537870000000     0.391440000000     0.0400257  
H857     H      0.846770000000     0.625170000000     0.331930000000     0.0538728  
H858     H      0.927900000000     0.644590000000     0.428290000000     0.0539091  
H859     H      0.859240000000     0.662410000000     0.284370000000     0.0412124  
H860     H      0.877890000000     0.590310000000     0.455420000000     0.027035   
H861     H      0.841790000000     0.677110000000     0.395300000000     0.0522361  
H862     H      0.932880000000     0.592660000000     0.364950000000     0.05231    
H863     H      0.915420000000     0.607360000000     0.475860000000     0.0412226  
H864     H      0.891320000000     0.720370000000     0.352550000000     0.02734    
H865     H      0.638410000000     0.826870000000     0.400230000000     0.0426305  
H866     H      0.641250000000     0.967830000000     0.413710000000     0.0266581  
H867     H      0.630920000000     0.845940000000     0.301010000000     0.0260675  
H868     H      0.635470000000     0.902040000000     0.321770000000     0.0425126  
H869     H      0.636210000000     0.942880000000     0.359970000000     0.0426614  
H870     H      0.639160000000     0.867710000000     0.438440000000     0.0425104  
H871     H      0.674050000000     0.788280000000     0.363470000000     0.0410399  
H872     H      0.600600000000     0.981480000000     0.396750000000     0.0410558  
H873     H      0.679930000000     0.897520000000     0.334410000000     0.0537553  
H874     H      0.594710000000     0.872240000000     0.425800000000     0.0537532  
H875     H      0.669790000000     0.863960000000     0.284100000000     0.0407084  
H876     H      0.643730000000     0.923810000000     0.459200000000     0.0260556  
H877     H      0.682100000000     0.841210000000     0.393770000000     0.0530336  
H878     H      0.592530000000     0.928540000000     0.366460000000     0.0530843  
H879     H      0.604870000000     0.905790000000     0.476120000000     0.0406832  
H880     H      0.633400000000     0.801930000000     0.346500000000     0.0266495  
H881     H      0.855760000000     0.847170000000     0.092430000000     0.0434518  
H882     H      0.911680000000     0.954730000000     0.113540000000     0.0318308  
H883     H      0.868440000000     0.866700000000     0.202150000000     0.0310098  
H884     H      0.865990000000     0.923510000000     0.173760000000     0.043282   
H885     H      0.919120000000     0.922480000000     0.167900000000     0.043469   
H886     H      0.908890000000     0.846130000000     0.086580000000     0.0432273  
H887     H      0.819890000000     0.812040000000     0.130850000000     0.0420519  
H888     H      0.954870000000     0.957690000000     0.129420000000     0.042176   
H889     H      0.827300000000     0.912680000000     0.153380000000     0.0509458  
H890     H      0.947580000000     0.857030000000     0.106900000000     0.0509879  
H891     H      0.827780000000     0.887080000000     0.209760000000     0.0405684  
H892     H      0.906290000000     0.902960000000     0.058190000000     0.0309647  
H893     H      0.821620000000     0.870900000000     0.109840000000     0.0514036  
H894     H      0.953270000000     0.898810000000     0.150430000000     0.0514235  
H895     H      0.946980000000     0.882640000000     0.050510000000     0.0405944  
H896     H      0.863050000000     0.814910000000     0.146790000000     0.0318005  
H897     H      0.657760000000     0.603910000000     0.678740000000     0.0423863  
H898     H      0.560320000000     0.647180000000     0.585330000000     0.0297756  
H899     H      0.720070000000     0.664760000000     0.624850000000     0.0286979  
H900     H      0.667670000000     0.677510000000     0.598330000000     0.0424498  
H901     H      0.616890000000     0.665850000000     0.581490000000     0.0424115  
H902     H      0.606980000000     0.592260000000     0.661910000000     0.042446   
H903     H      0.697910000000     0.638270000000     0.714600000000     0.0405115  
H904     H      0.576730000000     0.631490000000     0.545640000000     0.0404984  
H905     H      0.649180000000     0.698050000000     0.635130000000     0.051121   
H906     H      0.625460000000     0.571720000000     0.625110000000     0.0511257  
H907     H      0.710310000000     0.709140000000     0.631590000000     0.0422514  
H908     H      0.554580000000     0.605010000000     0.635400000000     0.0287474  
H909     H      0.640740000000     0.644450000000     0.692960000000     0.0497992  
H910     H      0.633900000000     0.625300000000     0.567280000000     0.0497838  
H911     H      0.564330000000     0.560630000000     0.628650000000     0.0422891  
H912     H      0.714330000000     0.622600000000     0.674920000000     0.0297899  
H913     H      0.610560000000     0.667990000000     0.924020000000     0.0424729  
H914     H      0.719610000000     0.621030000000     0.848420000000     0.028602   
H915     H      0.554750000000     0.604100000000     0.865260000000     0.0284832  
H916     H      0.610130000000     0.592440000000     0.845280000000     0.0424233  
H917     H      0.664060000000     0.601790000000     0.836200000000     0.0424547  
H918     H      0.664490000000     0.677340000000     0.914950000000     0.0424448  
H919     H      0.564660000000     0.636330000000     0.954630000000     0.0413104  
H920     H      0.709980000000     0.633440000000     0.805610000000     0.0412891  
H921     H      0.624370000000     0.572150000000     0.883990000000     0.0508245  
H922     H      0.650260000000     0.697620000000     0.876230000000     0.0508389  
H923     H      0.564220000000     0.560240000000     0.875290000000     0.041485   
H924     H      0.719880000000     0.665680000000     0.894980000000     0.0284683  
H925     H      0.624710000000     0.627870000000     0.942050000000     0.0509815  
H926     H      0.649930000000     0.641930000000     0.818190000000     0.0509624  
H927     H      0.710420000000     0.709530000000     0.884950000000     0.0414583  
H928     H      0.555010000000     0.648730000000     0.911820000000     0.0286052  
H929     H      0.639800000000     0.906020000000     0.687090000000     0.0424587  
H930     H      0.638340000000     0.918070000000     0.548290000000     0.026325   
H931     H      0.635860000000     0.804300000000     0.668650000000     0.0271662  
H932     H      0.637970000000     0.825790000000     0.613380000000     0.0424717  
H933     H      0.634860000000     0.863750000000     0.573150000000     0.042488   
H934     H      0.636700000000     0.943980000000     0.646850000000     0.0425511  
H935     H      0.676460000000     0.870590000000     0.724710000000     0.0412793  
H936     H      0.598230000000     0.899190000000     0.535520000000     0.0412649  
H937     H      0.681840000000     0.840700000000     0.616670000000     0.0522585  
H938     H      0.592830000000     0.929070000000     0.643550000000     0.0523277  
H939     H      0.675530000000     0.789660000000     0.650330000000     0.0414562  
H940     H      0.638820000000     0.965480000000     0.591590000000     0.0271744  
H941     H      0.683240000000     0.900270000000     0.671780000000     0.0526934  
H942     H      0.591430000000     0.869520000000     0.588450000000     0.0526935  
H943     H      0.599140000000     0.980120000000     0.609900000000     0.0414715  
H944     H      0.636350000000     0.851710000000     0.711940000000     0.0263339  
H945     H      0.913000000000     0.590430000000     0.665380000000     0.0430505  
H946     H      0.873840000000     0.707560000000     0.650440000000     0.0302423  
H947     H      0.899960000000     0.613900000000     0.558880000000     0.029708   
H948     H      0.913180000000     0.670460000000     0.586390000000     0.043283   
H949     H      0.861430000000     0.679200000000     0.594770000000     0.043012   
H950     H      0.861250000000     0.599200000000     0.673790000000     0.0432553  
H951     H      0.942990000000     0.551830000000     0.625220000000     0.0416708  
H952     H      0.831600000000     0.717880000000     0.634980000000     0.0416519  
H953     H      0.950230000000     0.653060000000     0.605260000000     0.052118   
H954     H      0.824210000000     0.616680000000     0.654980000000     0.0520754  
H955     H      0.941720000000     0.629950000000     0.547680000000     0.0425783  
H956     H      0.874640000000     0.655750000000     0.701260000000     0.0297239  
H957     H      0.950090000000     0.609740000000     0.648590000000     0.0514694  
H958     H      0.824340000000     0.659960000000     0.611650000000     0.0513705  
H959     H      0.832880000000     0.639780000000     0.712550000000     0.0425456  
H960     H      0.900750000000     0.562070000000     0.609690000000     0.0302088  
H961     H      0.912140000000     0.848040000000     0.922250000000     0.0427691  
H962     H      0.805420000000     0.908530000000     0.851600000000     0.0277665  
H963     H      0.973000000000     0.903600000000     0.862180000000     0.0275575  
H964     H      0.918940000000     0.921860000000     0.842880000000     0.0428836  
H965     H      0.862530000000     0.921710000000     0.837970000000     0.042746   
H966     H      0.855730000000     0.847880000000     0.917350000000     0.0428872  
H967     H      0.962640000000     0.874790000000     0.951710000000     0.0405479  
H968     H      0.812030000000     0.894970000000     0.808540000000     0.0405009  
H969     H      0.908810000000     0.945100000000     0.881220000000     0.052835   
H970     H      0.865860000000     0.824650000000     0.879000000000     0.0528052  
H971     H      0.969960000000     0.948650000000     0.870820000000     0.0409185  
H972     H      0.801670000000     0.866150000000     0.898060000000     0.0274949  
H973     H      0.903340000000     0.889220000000     0.941220000000     0.0521812  
H974     H      0.871320000000     0.880520000000     0.819010000000     0.0521715  
H975     H      0.804710000000     0.821110000000     0.889420000000     0.0408452  
H976     H      0.969260000000     0.861230000000     0.908640000000     0.0278199  
H977     H      0.885100000000     0.691390000000     0.904020000000     0.0428049  
H978     H      0.883340000000     0.549400000000     0.907680000000     0.0273143  
H979     H      0.896770000000     0.679460000000     0.804810000000     0.0270695  
H980     H      0.891780000000     0.621820000000     0.820890000000     0.0428158  
H981     H      0.889580000000     0.578380000000     0.856210000000     0.0427852  
H982     H      0.882890000000     0.647950000000     0.939340000000     0.0427856  
H983     H      0.849680000000     0.731890000000     0.868800000000     0.0400106  
H984     H      0.924990000000     0.537870000000     0.891440000000     0.0400268  
H985     H      0.846770000000     0.625170000000     0.831930000000     0.0538709  
H986     H      0.927900000000     0.644590000000     0.928290000000     0.0539253  
H987     H      0.859240000000     0.662410000000     0.784370000000     0.0412154  
H988     H      0.877890000000     0.590310000000     0.955420000000     0.0270508  
H989     H      0.841790000000     0.677110000000     0.895300000000     0.0522438  
H990     H      0.932880000000     0.592660000000     0.864950000000     0.052311   
H991     H      0.915420000000     0.607360000000     0.975860000000     0.0412482  
H992     H      0.891320000000     0.720370000000     0.852550000000     0.0273404  
H993     H      0.638410000000     0.826870000000     0.900230000000     0.0426381  
H994     H      0.641250000000     0.967830000000     0.913710000000     0.0266665  
H995     H      0.630920000000     0.845940000000     0.801010000000     0.0260667  
H996     H      0.635470000000     0.902040000000     0.821770000000     0.0425122  
H997     H      0.636210000000     0.942880000000     0.859970000000     0.0426619  
H998     H      0.639160000000     0.867710000000     0.938440000000     0.0425234  
H999     H      0.674050000000     0.788280000000     0.863470000000     0.0410434  
H1000    H      0.600600000000     0.981480000000     0.896750000000     0.0410577  
H1001    H      0.679930000000     0.897520000000     0.834410000000     0.0537567  
H1002    H      0.594710000000     0.872240000000     0.925800000000     0.0537607  
H1003    H      0.669790000000     0.863960000000     0.784100000000     0.0407079  
H1004    H      0.643730000000     0.923810000000     0.959200000000     0.0260768  
H1005    H      0.682100000000     0.841210000000     0.893770000000     0.0530414  
H1006    H      0.592530000000     0.928540000000     0.866460000000     0.0530834  
H1007    H      0.604870000000     0.905790000000     0.976120000000     0.0407135  
H1008    H      0.633400000000     0.801930000000     0.846500000000     0.0266503  
H1009    H      0.855760000000     0.847170000000     0.592430000000     0.0434608  
H1010    H      0.911680000000     0.954730000000     0.613550000000     0.0318304  
H1011    H      0.868440000000     0.866700000000     0.702150000000     0.0310106  
H1012    H      0.865990000000     0.923510000000     0.673760000000     0.0432787  
H1013    H      0.919120000000     0.922480000000     0.667900000000     0.043468   
H1014    H      0.908890000000     0.846130000000     0.586570000000     0.0432193  
H1015    H      0.819890000000     0.812040000000     0.630860000000     0.0420714  
H1016    H      0.954870000000     0.957690000000     0.629420000000     0.042175   
H1017    H      0.827300000000     0.912680000000     0.653370000000     0.0509367  
H1018    H      0.947580000000     0.857030000000     0.606900000000     0.0509868  
H1019    H      0.827780000000     0.887080000000     0.709760000000     0.0405707  
H1020    H      0.906290000000     0.902960000000     0.558190000000     0.0309832  
H1021    H      0.821620000000     0.870900000000     0.609840000000     0.0514088  
H1022    H      0.953270000000     0.898810000000     0.650430000000     0.0514232  
H1023    H      0.946980000000     0.882640000000     0.550510000000     0.040614   
H1024    H      0.863050000000     0.814910000000     0.646780000000     0.0318032  
N1       N      0.068840000000     0.093820000000     0.084860000000    -0.170747   
N2       N      0.205800000000     0.175950000000     0.175380000000    -0.170678   
N3       N      0.211210000000     0.174170000000     0.342750000000    -0.17126    
N4       N      0.063430000000     0.095600000000     0.417490000000    -0.171234   
N5       N      0.094960000000     0.440560000000     0.071800000000    -0.170614   
N6       N      0.179720000000     0.329220000000     0.188430000000    -0.170548   
N7       N      0.333670000000     0.182970000000     0.177730000000    -0.170834   
N8       N      0.440930000000     0.086750000000     0.082480000000    -0.170855   
N9       N      0.308270000000     0.354770000000     0.346020000000    -0.171831   
N10      N      0.466400000000     0.414990000000     0.414220000000    -0.171844   
N11      N      0.424530000000     0.072380000000     0.434240000000    -0.172314   
N12      N      0.350130000000     0.197380000000     0.325990000000    -0.17231    
N13      N      0.098530000000     0.444090000000     0.437100000000    -0.170519   
N14      N      0.176130000000     0.325670000000     0.323120000000    -0.170586   
N15      N      0.447870000000     0.425790000000     0.084890000000    -0.171471   
N16      N      0.326870000000     0.343920000000     0.175390000000    -0.171486   
N17      N      0.068840000000     0.093820000000     0.584860000000    -0.170746   
N18      N      0.205800000000     0.175950000000     0.675380000000    -0.17068    
N19      N      0.211210000000     0.174170000000     0.842750000000    -0.171233   
N20      N      0.063430000000     0.095600000000     0.917490000000    -0.17123    
N21      N      0.094960000000     0.440560000000     0.571800000000    -0.170609   
N22      N      0.179720000000     0.329220000000     0.688430000000    -0.170548   
N23      N      0.333670000000     0.182970000000     0.677730000000    -0.170834   
N24      N      0.440930000000     0.086750000000     0.582480000000    -0.170852   
N25      N      0.308270000000     0.354770000000     0.846020000000    -0.17183    
N26      N      0.466400000000     0.414990000000     0.914220000000    -0.17184    
N27      N      0.424530000000     0.072380000000     0.934240000000    -0.172309   
N28      N      0.350130000000     0.197380000000     0.825990000000    -0.172285   
N29      N      0.098530000000     0.444090000000     0.937100000000    -0.170512   
N30      N      0.176130000000     0.325670000000     0.823120000000    -0.170586   
N31      N      0.447870000000     0.425790000000     0.584890000000    -0.171467   
N32      N      0.326870000000     0.343920000000     0.675390000000    -0.171482   
N33      N      0.068840000000     0.593820000000     0.084860000000    -0.170738   
N34      N      0.205800000000     0.675950000000     0.175380000000    -0.170713   
N35      N      0.211210000000     0.674170000000     0.342750000000    -0.171259   
N36      N      0.063430000000     0.595600000000     0.417490000000    -0.171232   
N37      N      0.094960000000     0.940560000000     0.071800000000    -0.170574   
N38      N      0.179720000000     0.829220000000     0.188430000000    -0.170538   
N39      N      0.333670000000     0.682970000000     0.177730000000    -0.170835   
N40      N      0.440930000000     0.586740000000     0.082480000000    -0.170897   
N41      N      0.308270000000     0.854770000000     0.346020000000    -0.171793   
N42      N      0.466400000000     0.914990000000     0.414220000000    -0.171895   
N43      N      0.424530000000     0.572380000000     0.434240000000    -0.172309   
N44      N      0.350130000000     0.697380000000     0.325990000000    -0.17231    
N45      N      0.098530000000     0.944080000000     0.437100000000    -0.170488   
N46      N      0.176130000000     0.825670000000     0.323120000000    -0.170582   
N47      N      0.447870000000     0.925790000000     0.084890000000    -0.17143    
N48      N      0.326870000000     0.843920000000     0.175390000000    -0.171498   
N49      N      0.068840000000     0.593820000000     0.584860000000    -0.170736   
N50      N      0.205800000000     0.675950000000     0.675380000000    -0.170714   
N51      N      0.211210000000     0.674170000000     0.842750000000    -0.171232   
N52      N      0.063430000000     0.595600000000     0.917490000000    -0.171228   
N53      N      0.094960000000     0.940560000000     0.571800000000    -0.170569   
N54      N      0.179720000000     0.829220000000     0.688430000000    -0.170538   
N55      N      0.333670000000     0.682970000000     0.677730000000    -0.170835   
N56      N      0.440930000000     0.586740000000     0.582480000000    -0.170895   
N57      N      0.308270000000     0.854770000000     0.846020000000    -0.171792   
N58      N      0.466400000000     0.914990000000     0.914220000000    -0.171891   
N59      N      0.424530000000     0.572380000000     0.934240000000    -0.172305   
N60      N      0.350130000000     0.697380000000     0.825990000000    -0.172285   
N61      N      0.098530000000     0.944080000000     0.937100000000    -0.170481   
N62      N      0.176130000000     0.825670000000     0.823120000000    -0.170582   
N63      N      0.447870000000     0.925790000000     0.584890000000    -0.171425   
N64      N      0.326870000000     0.843920000000     0.675390000000    -0.171494   
N65      N      0.568840000000     0.093820000000     0.084860000000    -0.170762   
N66      N      0.705800000000     0.175950000000     0.175380000000    -0.170682   
N67      N      0.711210000000     0.174170000000     0.342750000000    -0.171258   
N68      N      0.563430000000     0.095600000000     0.417490000000    -0.171195   
N69      N      0.594960000000     0.440560000000     0.071800000000    -0.170618   
N70      N      0.679720000000     0.329220000000     0.188430000000    -0.170547   
N71      N      0.833670000000     0.182970000000     0.177730000000    -0.170837   
N72      N      0.940920000000     0.086750000000     0.082480000000    -0.170783   
N73      N      0.808270000000     0.354770000000     0.346020000000    -0.171832   
N74      N      0.966400000000     0.414990000000     0.414220000000    -0.171807   
N75      N      0.924530000000     0.072380000000     0.434240000000    -0.172335   
N76      N      0.850130000000     0.197380000000     0.325990000000    -0.172358   
N77      N      0.598520000000     0.444090000000     0.437100000000    -0.170575   
N78      N      0.676130000000     0.325670000000     0.323120000000    -0.170581   
N79      N      0.947880000000     0.425790000000     0.084890000000    -0.17148    
N80      N      0.826870000000     0.343920000000     0.175390000000    -0.171479   
N81      N      0.568840000000     0.093820000000     0.584860000000    -0.170761   
N82      N      0.705800000000     0.175950000000     0.675380000000    -0.170683   
N83      N      0.711210000000     0.174170000000     0.842750000000    -0.171231   
N84      N      0.563430000000     0.095600000000     0.917490000000    -0.171192   
N85      N      0.594960000000     0.440560000000     0.571800000000    -0.170613   
N86      N      0.679720000000     0.329220000000     0.688430000000    -0.170548   
N87      N      0.833670000000     0.182970000000     0.677730000000    -0.170837   
N88      N      0.940920000000     0.086750000000     0.582480000000    -0.17078    
N89      N      0.808270000000     0.354770000000     0.846020000000    -0.17183    
N90      N      0.966400000000     0.414990000000     0.914220000000    -0.171803   
N91      N      0.924530000000     0.072380000000     0.934240000000    -0.17233    
N92      N      0.850130000000     0.197380000000     0.825990000000    -0.172333   
N93      N      0.598520000000     0.444090000000     0.937100000000    -0.170568   
N94      N      0.676130000000     0.325670000000     0.823120000000    -0.170581   
N95      N      0.947880000000     0.425790000000     0.584890000000    -0.171476   
N96      N      0.826870000000     0.343920000000     0.675390000000    -0.171475   
N97      N      0.568840000000     0.593820000000     0.084860000000    -0.170753   
N98      N      0.705800000000     0.675950000000     0.175380000000    -0.170717   
N99      N      0.711210000000     0.674170000000     0.342750000000    -0.171258   
N100     N      0.563430000000     0.595600000000     0.417490000000    -0.171193   
N101     N      0.594960000000     0.940560000000     0.071800000000    -0.170579   
N102     N      0.679720000000     0.829220000000     0.188430000000    -0.170537   
N103     N      0.833670000000     0.682970000000     0.177730000000    -0.170838   
N104     N      0.940920000000     0.586740000000     0.082480000000    -0.170825   
N105     N      0.808270000000     0.854770000000     0.346020000000    -0.171794   
N106     N      0.966400000000     0.914990000000     0.414220000000    -0.171857   
N107     N      0.924530000000     0.572380000000     0.434240000000    -0.17233    
N108     N      0.850130000000     0.697380000000     0.325990000000    -0.172358   
N109     N      0.598520000000     0.944080000000     0.437100000000    -0.170544   
N110     N      0.676130000000     0.825670000000     0.323120000000    -0.170578   
N111     N      0.947880000000     0.925790000000     0.084890000000    -0.171439   
N112     N      0.826870000000     0.843920000000     0.175390000000    -0.171491   
N113     N      0.568840000000     0.593820000000     0.584860000000    -0.170751   
N114     N      0.705800000000     0.675950000000     0.675380000000    -0.170718   
N115     N      0.711210000000     0.674170000000     0.842750000000    -0.171231   
N116     N      0.563430000000     0.595600000000     0.917490000000    -0.171189   
N117     N      0.594960000000     0.940560000000     0.571800000000    -0.170574   
N118     N      0.679720000000     0.829220000000     0.688430000000    -0.170537   
N119     N      0.833670000000     0.682970000000     0.677730000000    -0.170838   
N120     N      0.940920000000     0.586740000000     0.582480000000    -0.170823   
N121     N      0.808270000000     0.854770000000     0.846020000000    -0.171792   
N122     N      0.966400000000     0.914990000000     0.914220000000    -0.171854   
N123     N      0.924530000000     0.572380000000     0.934240000000    -0.172326   
N124     N      0.850130000000     0.697380000000     0.825990000000    -0.172333   
N125     N      0.598520000000     0.944080000000     0.937100000000    -0.170537   
N126     N      0.676130000000     0.825670000000     0.823120000000    -0.170578   
N127     N      0.947880000000     0.925790000000     0.584890000000    -0.171434   
N128     N      0.826870000000     0.843920000000     0.675390000000    -0.171487   
O1       O      0.479060000000     0.433990000000     0.035890000000    -0.371427   
O2       O      0.466360000000     0.073140000000     0.474980000000    -0.364388   
O3       O      0.475370000000     0.039510000000     0.074810000000    -0.36007    
O4       O      0.489690000000     0.467730000000     0.425220000000    -0.366327   
O5       O      0.475280000000     0.080720000000     0.035740000000    -0.359205   
O6       O      0.487720000000     0.428950000000     0.466710000000    -0.369457   
O7       O      0.468370000000     0.033000000000     0.434840000000    -0.367851   
O8       O      0.481700000000     0.472990000000     0.077070000000    -0.371772   
O9       O      0.055450000000     0.442290000000     0.476760000000    -0.362231   
O10      O      0.041550000000     0.081780000000     0.034460000000    -0.37085    
O11      O      0.053300000000     0.482180000000     0.069110000000    -0.374328   
O12      O      0.037130000000     0.043960000000     0.427240000000    -0.369772   
O13      O      0.037710000000     0.083130000000     0.468370000000    -0.37681    
O14      O      0.052550000000     0.439590000000     0.031510000000    -0.364436   
O15      O      0.054440000000     0.483200000000     0.437300000000    -0.372749   
O16      O      0.040600000000     0.043220000000     0.076120000000    -0.367539   
O17      O      0.496200000000     0.506540000000     0.002530000000    -0.58906    
O18      O      0.293000000000     0.296740000000     0.183190000000    -0.37171    
O19      O      0.306280000000     0.236760000000     0.325400000000    -0.367776   
O20      O      0.286950000000     0.340810000000     0.293530000000    -0.369473   
O21      O      0.299350000000     0.189020000000     0.224490000000    -0.359118   
O22      O      0.284980000000     0.302030000000     0.335020000000    -0.366345   
O23      O      0.299260000000     0.230230000000     0.185410000000    -0.359923   
O24      O      0.308300000000     0.196620000000     0.285250000000    -0.364215   
O25      O      0.295650000000     0.335740000000     0.224370000000    -0.37147    
O26      O      0.234040000000     0.226550000000     0.184120000000    -0.367401   
O27      O      0.220210000000     0.286560000000     0.322930000000    -0.372767   
O28      O      0.222130000000     0.330180000000     0.228730000000    -0.364368   
O29      O      0.236940000000     0.186640000000     0.291870000000    -0.376913   
O30      O      0.237530000000     0.225800000000     0.332990000000    -0.369956   
O31      O      0.221370000000     0.287580000000     0.191120000000    -0.374173   
O32      O      0.233090000000     0.187980000000     0.225790000000    -0.370634   
O33      O      0.219210000000     0.327470000000     0.283470000000    -0.362202   
O34      O      0.278470000000     0.263220000000     0.257710000000    -0.588908   
O35      O      0.479060000000     0.433990000000     0.535890000000    -0.371421   
O36      O      0.466360000000     0.073140000000     0.974980000000    -0.364316   
O37      O      0.475370000000     0.039510000000     0.574810000000    -0.360071   
O38      O      0.489690000000     0.467730000000     0.925220000000    -0.366327   
O39      O      0.475280000000     0.080720000000     0.535740000000    -0.359203   
O40      O      0.487720000000     0.428950000000     0.966710000000    -0.369392   
O41      O      0.468370000000     0.033000000000     0.934840000000    -0.367846   
O42      O      0.481700000000     0.472990000000     0.577070000000    -0.371772   
O43      O      0.055450000000     0.442290000000     0.976760000000    -0.36216    
O44      O      0.041550000000     0.081780000000     0.534450000000    -0.370643   
O45      O      0.053300000000     0.482180000000     0.569110000000    -0.374325   
O46      O      0.037130000000     0.043960000000     0.927240000000    -0.369772   
O47      O      0.037710000000     0.083130000000     0.968370000000    -0.376747   
O48      O      0.052550000000     0.439590000000     0.531510000000    -0.364421   
O49      O      0.054440000000     0.483200000000     0.937300000000    -0.372745   
O50      O      0.040600000000     0.043220000000     0.576120000000    -0.367509   
O51      O      0.496200000000     0.506540000000     0.502530000000    -0.589031   
O52      O      0.293000000000     0.296740000000     0.683190000000    -0.37171    
O53      O      0.306280000000     0.236760000000     0.825400000000    -0.367739   
O54      O      0.286950000000     0.340810000000     0.793530000000    -0.369472   
O55      O      0.299350000000     0.189020000000     0.724490000000    -0.359115   
O56      O      0.284980000000     0.302030000000     0.835020000000    -0.366334   
O57      O      0.299260000000     0.230230000000     0.685410000000    -0.359922   
O58      O      0.308300000000     0.196620000000     0.785250000000    -0.364309   
O59      O      0.295650000000     0.335740000000     0.724370000000    -0.37147    
O60      O      0.234040000000     0.226550000000     0.684120000000    -0.3674     
O61      O      0.220210000000     0.286560000000     0.822930000000    -0.372765   
O62      O      0.222130000000     0.330180000000     0.728730000000    -0.364369   
O63      O      0.236940000000     0.186640000000     0.791870000000    -0.376891   
O64      O      0.237530000000     0.225800000000     0.833000000000    -0.369844   
O65      O      0.221370000000     0.287580000000     0.691120000000    -0.374172   
O66      O      0.233090000000     0.187980000000     0.725790000000    -0.370636   
O67      O      0.219210000000     0.327470000000     0.783470000000    -0.362201   
O68      O      0.278470000000     0.263220000000     0.757710000000    -0.588905   
O69      O      0.479060000000     0.933990000000     0.035890000000    -0.371407   
O70      O      0.466360000000     0.573140000000     0.474980000000    -0.364388   
O71      O      0.475370000000     0.539510000000     0.074810000000    -0.360072   
O72      O      0.489690000000     0.967730000000     0.425220000000    -0.366147   
O73      O      0.475280000000     0.580720000000     0.035740000000    -0.359222   
O74      O      0.487720000000     0.928950000000     0.466710000000    -0.369464   
O75      O      0.468370000000     0.533000000000     0.434840000000    -0.367843   
O76      O      0.481700000000     0.972990000000     0.077070000000    -0.371805   
O77      O      0.055450000000     0.942290000000     0.476760000000    -0.362217   
O78      O      0.041550000000     0.581780000000     0.034460000000    -0.37085    
O79      O      0.053300000000     0.982190000000     0.069110000000    -0.374154   
O80      O      0.037130000000     0.543960000000     0.427240000000    -0.369761   
O81      O      0.037710000000     0.583130000000     0.468370000000    -0.376809   
O82      O      0.052550000000     0.939590000000     0.031510000000    -0.364387   
O83      O      0.054440000000     0.983200000000     0.437300000000    -0.372665   
O84      O      0.040600000000     0.543220000000     0.076120000000    -0.367535   
O85      O      0.496200000000     0.006540000000     0.002530000000    -0.589091   
O86      O      0.293000000000     0.796750000000     0.183190000000    -0.371888   
O87      O      0.306280000000     0.736760000000     0.325400000000    -0.36777    
O88      O      0.286950000000     0.840810000000     0.293530000000    -0.369354   
O89      O      0.299350000000     0.689020000000     0.224490000000    -0.359119   
O90      O      0.284980000000     0.802020000000     0.335020000000    -0.366251   
O91      O      0.299260000000     0.730230000000     0.185410000000    -0.359927   
O92      O      0.308300000000     0.696620000000     0.285250000000    -0.364216   
O93      O      0.295650000000     0.835740000000     0.224370000000    -0.371444   
O94      O      0.234040000000     0.726550000000     0.184120000000    -0.367294   
O95      O      0.220210000000     0.786560000000     0.322930000000    -0.372766   
O96      O      0.222130000000     0.830180000000     0.228730000000    -0.364314   
O97      O      0.236940000000     0.686640000000     0.291870000000    -0.376913   
O98      O      0.237530000000     0.725800000000     0.332990000000    -0.369957   
O99      O      0.221370000000     0.787580000000     0.191120000000    -0.374159   
O100     O      0.233090000000     0.687980000000     0.225790000000    -0.370647   
O101     O      0.219210000000     0.827470000000     0.283470000000    -0.36216    
O102     O      0.278470000000     0.763220000000     0.257710000000    -0.588955   
O103     O      0.479060000000     0.933990000000     0.535890000000    -0.371401   
O104     O      0.466360000000     0.573140000000     0.974980000000    -0.364316   
O105     O      0.475370000000     0.539510000000     0.574810000000    -0.360073   
O106     O      0.489690000000     0.967730000000     0.925220000000    -0.366147   
O107     O      0.475280000000     0.580720000000     0.535740000000    -0.359221   
O108     O      0.487720000000     0.928950000000     0.966710000000    -0.369399   
O109     O      0.468370000000     0.533000000000     0.934840000000    -0.367838   
O110     O      0.481700000000     0.972990000000     0.577070000000    -0.371804   
O111     O      0.055450000000     0.942290000000     0.976760000000    -0.362145   
O112     O      0.041550000000     0.581780000000     0.534450000000    -0.370643   
O113     O      0.053300000000     0.982190000000     0.569110000000    -0.374151   
O114     O      0.037130000000     0.543960000000     0.927240000000    -0.369761   
O115     O      0.037710000000     0.583130000000     0.968370000000    -0.376746   
O116     O      0.052550000000     0.939590000000     0.531510000000    -0.364372   
O117     O      0.054440000000     0.983200000000     0.937300000000    -0.372661   
O118     O      0.040600000000     0.543220000000     0.576120000000    -0.367504   
O119     O      0.496200000000     0.006540000000     0.502530000000    -0.589062   
O120     O      0.293000000000     0.796750000000     0.683190000000    -0.371888   
O121     O      0.306280000000     0.736760000000     0.825400000000    -0.367733   
O122     O      0.286950000000     0.840810000000     0.793530000000    -0.369353   
O123     O      0.299350000000     0.689020000000     0.724490000000    -0.359116   
O124     O      0.284980000000     0.802020000000     0.835020000000    -0.36624    
O125     O      0.299260000000     0.730230000000     0.685410000000    -0.359926   
O126     O      0.308300000000     0.696620000000     0.785250000000    -0.364309   
O127     O      0.295650000000     0.835740000000     0.724370000000    -0.371444   
O128     O      0.234040000000     0.726550000000     0.684120000000    -0.367293   
O129     O      0.220210000000     0.786560000000     0.822930000000    -0.372763   
O130     O      0.222130000000     0.830180000000     0.728730000000    -0.364315   
O131     O      0.236940000000     0.686640000000     0.791870000000    -0.376891   
O132     O      0.237530000000     0.725800000000     0.833000000000    -0.369845   
O133     O      0.221370000000     0.787580000000     0.691120000000    -0.374158   
O134     O      0.233090000000     0.687980000000     0.725790000000    -0.370649   
O135     O      0.219210000000     0.827470000000     0.783470000000    -0.36216    
O136     O      0.278470000000     0.763220000000     0.757710000000    -0.588953   
O137     O      0.979060000000     0.433990000000     0.035890000000    -0.371155   
O138     O      0.966360000000     0.073140000000     0.474980000000    -0.364055   
O139     O      0.975370000000     0.039510000000     0.074810000000    -0.359773   
O140     O      0.989680000000     0.467730000000     0.425220000000    -0.366031   
O141     O      0.975280000000     0.080720000000     0.035740000000    -0.358903   
O142     O      0.987710000000     0.428950000000     0.466710000000    -0.369162   
O143     O      0.968370000000     0.033000000000     0.434840000000    -0.367501   
O144     O      0.981700000000     0.472990000000     0.077070000000    -0.371493   
O145     O      0.555450000000     0.442290000000     0.476760000000    -0.362272   
O146     O      0.541550000000     0.081780000000     0.034460000000    -0.370821   
O147     O      0.553300000000     0.482180000000     0.069110000000    -0.374372   
O148     O      0.537120000000     0.043960000000     0.427240000000    -0.369827   
O149     O      0.537710000000     0.083130000000     0.468370000000    -0.376865   
O150     O      0.552550000000     0.439590000000     0.031510000000    -0.364463   
O151     O      0.554440000000     0.483200000000     0.437300000000    -0.372802   
O152     O      0.540600000000     0.043220000000     0.076120000000    -0.367495   
O153     O      0.996200000000     0.506540000000     0.002530000000    -0.588368   
O154     O      0.793000000000     0.296740000000     0.183190000000    -0.371714   
O155     O      0.806290000000     0.236760000000     0.325400000000    -0.367722   
O156     O      0.786950000000     0.340810000000     0.293530000000    -0.369482   
O157     O      0.799350000000     0.189020000000     0.224490000000    -0.359149   
O158     O      0.784980000000     0.302030000000     0.335020000000    -0.366353   
O159     O      0.799270000000     0.230230000000     0.185410000000    -0.359932   
O160     O      0.808300000000     0.196620000000     0.285250000000    -0.364188   
O161     O      0.795650000000     0.335740000000     0.224370000000    -0.371478   
O162     O      0.734040000000     0.226550000000     0.184120000000    -0.367414   
O163     O      0.720210000000     0.286560000000     0.322930000000    -0.372762   
O164     O      0.722130000000     0.330180000000     0.228730000000    -0.364376   
O165     O      0.736940000000     0.186640000000     0.291870000000    -0.376916   
O166     O      0.737530000000     0.225800000000     0.332990000000    -0.369963   
O167     O      0.721370000000     0.287580000000     0.191120000000    -0.374171   
O168     O      0.733090000000     0.187980000000     0.225790000000    -0.370639   
O169     O      0.719210000000     0.327470000000     0.283470000000    -0.362206   
O170     O      0.778460000000     0.263220000000     0.257710000000    -0.588994   
O171     O      0.979060000000     0.433990000000     0.535890000000    -0.371149   
O172     O      0.966360000000     0.073140000000     0.974980000000    -0.363983   
O173     O      0.975370000000     0.039510000000     0.574810000000    -0.359774   
O174     O      0.989680000000     0.467730000000     0.925220000000    -0.366031   
O175     O      0.975280000000     0.080720000000     0.535740000000    -0.358901   
O176     O      0.987710000000     0.428950000000     0.966710000000    -0.369097   
O177     O      0.968370000000     0.033000000000     0.934840000000    -0.367496   
O178     O      0.981700000000     0.472990000000     0.577070000000    -0.371492   
O179     O      0.555450000000     0.442290000000     0.976760000000    -0.362201   
O180     O      0.541550000000     0.081780000000     0.534450000000    -0.370614   
O181     O      0.553300000000     0.482180000000     0.569110000000    -0.374369   
O182     O      0.537120000000     0.043960000000     0.927240000000    -0.369828   
O183     O      0.537710000000     0.083130000000     0.968370000000    -0.376802   
O184     O      0.552550000000     0.439590000000     0.531510000000    -0.364448   
O185     O      0.554440000000     0.483200000000     0.937300000000    -0.372797   
O186     O      0.540600000000     0.043220000000     0.576120000000    -0.367465   
O187     O      0.996200000000     0.506540000000     0.502530000000    -0.58834    
O188     O      0.793000000000     0.296740000000     0.683190000000    -0.371714   
O189     O      0.806290000000     0.236760000000     0.825400000000    -0.367685   
O190     O      0.786950000000     0.340810000000     0.793530000000    -0.369481   
O191     O      0.799350000000     0.189020000000     0.724490000000    -0.359146   
O192     O      0.784980000000     0.302030000000     0.835020000000    -0.366342   
O193     O      0.799270000000     0.230230000000     0.685410000000    -0.359931   
O194     O      0.808300000000     0.196620000000     0.785250000000    -0.364281   
O195     O      0.795650000000     0.335740000000     0.724370000000    -0.371479   
O196     O      0.734040000000     0.226550000000     0.684120000000    -0.367413   
O197     O      0.720210000000     0.286560000000     0.822930000000    -0.37276    
O198     O      0.722130000000     0.330180000000     0.728730000000    -0.364377   
O199     O      0.736940000000     0.186640000000     0.791870000000    -0.376894   
O200     O      0.737530000000     0.225800000000     0.833000000000    -0.369851   
O201     O      0.721370000000     0.287580000000     0.691120000000    -0.37417    
O202     O      0.733090000000     0.187980000000     0.725790000000    -0.370641   
O203     O      0.719210000000     0.327470000000     0.783470000000    -0.362205   
O204     O      0.778460000000     0.263220000000     0.757710000000    -0.588992   
O205     O      0.979060000000     0.933990000000     0.035890000000    -0.371135   
O206     O      0.966360000000     0.573140000000     0.474980000000    -0.364054   
O207     O      0.975370000000     0.539510000000     0.074810000000    -0.359776   
O208     O      0.989680000000     0.967730000000     0.425220000000    -0.365851   
O209     O      0.975280000000     0.580720000000     0.035740000000    -0.35892    
O210     O      0.987710000000     0.928950000000     0.466710000000    -0.369169   
O211     O      0.968370000000     0.533000000000     0.434840000000    -0.367493   
O212     O      0.981700000000     0.972990000000     0.077070000000    -0.371525   
O213     O      0.555450000000     0.942290000000     0.476760000000    -0.362257   
O214     O      0.541550000000     0.581780000000     0.034460000000    -0.370821   
O215     O      0.553300000000     0.982190000000     0.069110000000    -0.374197   
O216     O      0.537120000000     0.543960000000     0.427240000000    -0.369816   
O217     O      0.537710000000     0.583130000000     0.468370000000    -0.376864   
O218     O      0.552550000000     0.939590000000     0.031510000000    -0.364414   
O219     O      0.554440000000     0.983200000000     0.437300000000    -0.372718   
O220     O      0.540600000000     0.543220000000     0.076120000000    -0.367491   
O221     O      0.996200000000     0.006540000000     0.002530000000    -0.588399   
O222     O      0.793000000000     0.796750000000     0.183190000000    -0.371892   
O223     O      0.806290000000     0.736760000000     0.325400000000    -0.367716   
O224     O      0.786950000000     0.840810000000     0.293530000000    -0.369363   
O225     O      0.799350000000     0.689020000000     0.224490000000    -0.35915    
O226     O      0.784980000000     0.802020000000     0.335020000000    -0.366258   
O227     O      0.799270000000     0.730230000000     0.185410000000    -0.359936   
O228     O      0.808300000000     0.696620000000     0.285250000000    -0.364189   
O229     O      0.795650000000     0.835740000000     0.224370000000    -0.371453   
O230     O      0.734040000000     0.726550000000     0.184120000000    -0.367307   
O231     O      0.720210000000     0.786560000000     0.322930000000    -0.37276    
O232     O      0.722130000000     0.830180000000     0.228730000000    -0.364322   
O233     O      0.736940000000     0.686640000000     0.291870000000    -0.376916   
O234     O      0.737530000000     0.725800000000     0.332990000000    -0.369964   
O235     O      0.721370000000     0.787580000000     0.191120000000    -0.374157   
O236     O      0.733090000000     0.687980000000     0.225790000000    -0.370652   
O237     O      0.719210000000     0.827470000000     0.283470000000    -0.362164   
O238     O      0.778460000000     0.763220000000     0.257710000000    -0.589042   
O239     O      0.979060000000     0.933990000000     0.535890000000    -0.371129   
O240     O      0.966360000000     0.573140000000     0.974980000000    -0.363982   
O241     O      0.975370000000     0.539510000000     0.574810000000    -0.359777   
O242     O      0.989680000000     0.967730000000     0.925220000000    -0.365851   
O243     O      0.975280000000     0.580720000000     0.535740000000    -0.358919   
O244     O      0.987710000000     0.928950000000     0.966710000000    -0.369104   
O245     O      0.968370000000     0.533000000000     0.934840000000    -0.367488   
O246     O      0.981700000000     0.972990000000     0.577070000000    -0.371525   
O247     O      0.555450000000     0.942290000000     0.976760000000    -0.362186   
O248     O      0.541550000000     0.581780000000     0.534450000000    -0.370614   
O249     O      0.553300000000     0.982190000000     0.569110000000    -0.374194   
O250     O      0.537120000000     0.543960000000     0.927240000000    -0.369817   
O251     O      0.537710000000     0.583130000000     0.968370000000    -0.3768     
O252     O      0.552550000000     0.939590000000     0.531510000000    -0.364399   
O253     O      0.554440000000     0.983200000000     0.937300000000    -0.372714   
O254     O      0.540600000000     0.543220000000     0.576120000000    -0.367461   
O255     O      0.996200000000     0.006540000000     0.502530000000    -0.58837    
O256     O      0.793000000000     0.796750000000     0.683190000000    -0.371892   
O257     O      0.806290000000     0.736760000000     0.825400000000    -0.367679   
O258     O      0.786950000000     0.840810000000     0.793530000000    -0.369362   
O259     O      0.799350000000     0.689020000000     0.724490000000    -0.359147   
O260     O      0.784980000000     0.802020000000     0.835020000000    -0.366247   
O261     O      0.799270000000     0.730230000000     0.685410000000    -0.359935   
O262     O      0.808300000000     0.696620000000     0.785250000000    -0.364282   
O263     O      0.795650000000     0.835740000000     0.724370000000    -0.371453   
O264     O      0.734040000000     0.726550000000     0.684120000000    -0.367306   
O265     O      0.720210000000     0.786560000000     0.822930000000    -0.372758   
O266     O      0.722130000000     0.830180000000     0.728730000000    -0.364323   
O267     O      0.736940000000     0.686640000000     0.791870000000    -0.376894   
O268     O      0.737530000000     0.725800000000     0.833000000000    -0.369852   
O269     O      0.721370000000     0.787580000000     0.691120000000    -0.374156   
O270     O      0.733090000000     0.687980000000     0.725790000000    -0.370654   
O271     O      0.719210000000     0.827470000000     0.783470000000    -0.362164   
O272     O      0.778460000000     0.763220000000     0.757710000000    -0.589039   


