data_structure

_audit_creation_method RASPA-1.0
_audit_creation_date 2023-5-25
_audit_author_name 'Poobodin Mano'

_cell_length_a    51.7108
_cell_length_b    47.771
_cell_length_c    47.765
_cell_angle_alpha 90
_cell_angle_beta  90
_cell_angle_gamma 90
_cell_volume      117993

_symmetry_cell_setting          triclinic
_symmetry_space_group_name_Hall 'P 1'
_symmetry_space_group_name_H-M  'P 1'
_symmetry_Int_Tables_number     1

_symmetry_equiv_pos_as_xyz 'x,y,z'

loop_
_atom_site_label
_atom_site_type_symbol
_atom_site_fract_x
_atom_site_fract_y
_atom_site_fract_z
_atom_site_charge
C1       C      0.446230000000     0.475490000000     0.069010000000     0.415852   
C2       C      0.445980000000     0.068550000000     0.475630000000     0.397041   
C3       C      0.453760000000     0.075150000000     0.075430000000     0.411076   
C4       C      0.457090000000     0.468810000000     0.468930000000     0.396383   
C5       C      0.026050000000     0.479130000000     0.479390000000     0.38612    
C6       C      0.019620000000     0.070900000000     0.070820000000     0.391462   
C7       C      0.022990000000     0.477300000000     0.068730000000     0.386197   
C8       C      0.022670000000     0.068930000000     0.477340000000     0.404134   
C9       C      0.271510000000     0.322030000000     0.228830000000     0.397304   
C10      C      0.271300000000     0.228440000000     0.322230000000     0.41524    
C11      C      0.260890000000     0.328430000000     0.328700000000     0.413945   
C12      C      0.263910000000     0.222130000000     0.222460000000     0.397081   
C13      C      0.198210000000     0.226570000000     0.226590000000     0.410382   
C14      C      0.191920000000     0.318500000000     0.318740000000     0.407374   
C15      C      0.194940000000     0.320210000000     0.228770000000     0.405777   
C16      C      0.194580000000     0.228900000000     0.320200000000     0.388888   
C17      C      0.149040000000     0.207860000000     0.171940000000    -0.0348062  
C18      C      0.069100000000     0.089740000000     0.125110000000    -0.0287142  
C19      C      0.043770000000     0.114750000000     0.076500000000    -0.00993182 
C20      C      0.043940000000     0.076760000000     0.114540000000    -0.00746932 
C21      C      0.083000000000     0.154400000000     0.154190000000    -0.0512549  
C22      C      0.135030000000     0.143280000000     0.142740000000    -0.0489118  
C23      C      0.089470000000     0.134370000000     0.133960000000     0.0648178  
C24      C      0.068950000000     0.125450000000     0.089330000000    -0.0273346  
C25      C      0.128560000000     0.163290000000     0.162970000000     0.0655857  
C26      C      0.149040000000     0.172090000000     0.207670000000    -0.112475   
C27      C      0.102340000000     0.168810000000     0.168640000000    -0.0543452  
C28      C      0.174290000000     0.182610000000     0.220520000000     0.324702   
C29      C      0.174200000000     0.220750000000     0.182640000000     0.00886035 
C30      C      0.115700000000     0.128870000000     0.128290000000    -0.0547329  
C31      C      0.065690000000     0.127030000000     0.456230000000    -0.0331862  
C32      C      0.151150000000     0.171200000000     0.341180000000    -0.0280342  
C33      C      0.160390000000     0.229440000000     0.356420000000    -0.0144461  
C34      C      0.161240000000     0.191740000000     0.319150000000    -0.0100775  
C35      C      0.135530000000     0.149480000000     0.399050000000    -0.0544712  
C36      C      0.081430000000     0.148850000000     0.398460000000    -0.053869   
C37      C      0.122020000000     0.167270000000     0.380630000000     0.0647283  
C38      C      0.150410000000     0.207390000000     0.376970000000    -0.0252861  
C39      C      0.094940000000     0.131060000000     0.416880000000     0.0646381  
C40      C      0.066640000000     0.090860000000     0.420470000000    -0.110593   
C41      C      0.122020000000     0.131560000000     0.416980000000    -0.0488709  
C42      C      0.056710000000     0.068700000000     0.440970000000     0.322859   
C43      C      0.055630000000     0.106470000000     0.478260000000     0.00798863 
C44      C      0.094930000000     0.166770000000     0.380530000000    -0.0512574  
C45      C      0.151830000000     0.341290000000     0.170740000000    -0.0331286  
C46      C      0.066450000000     0.456340000000     0.126450000000    -0.0295037  
C47      C      0.057070000000     0.440960000000     0.068260000000    -0.00846251 
C48      C      0.056350000000     0.478340000000     0.105870000000    -0.00872936 
C49      C      0.082040000000     0.398510000000     0.148290000000    -0.0541086  
C50      C      0.136140000000     0.399050000000     0.148850000000    -0.0547792  
C51      C      0.095550000000     0.416870000000     0.130430000000     0.0630678  
C52      C      0.067090000000     0.420470000000     0.090350000000    -0.0294128  
C53      C      0.122630000000     0.380680000000     0.166700000000     0.0648556  
C54      C      0.151000000000     0.377100000000     0.206870000000    -0.110371   
C55      C      0.095550000000     0.380610000000     0.166240000000    -0.0495593  
C56      C      0.160940000000     0.356620000000     0.229040000000     0.32305    
C57      C      0.161890000000     0.319280000000     0.191320000000     0.00803856 
C58      C      0.122630000000     0.416940000000     0.130900000000    -0.0517801  
C59      C      0.405920000000     0.093840000000     0.130190000000    -0.0335683  
C60      C      0.311790000000     0.203170000000     0.167850000000    -0.0290392  
C61      C      0.284960000000     0.176340000000     0.214360000000    -0.00968644 
C62      C      0.285140000000     0.213900000000     0.176790000000    -0.00807566 
C63      C      0.361850000000     0.168950000000     0.169790000000    -0.054475   
C64      C      0.355810000000     0.127990000000     0.128430000000    -0.0545022  
C65      C      0.336820000000     0.160820000000     0.161470000000     0.0637076  
C66      C      0.311620000000     0.167260000000     0.203790000000    -0.0280992  
C67      C      0.380840000000     0.136130000000     0.136740000000     0.0646738  
C68      C      0.405970000000     0.129830000000     0.094360000000    -0.11041    
C69      C      0.383610000000     0.156660000000     0.157480000000    -0.0490736  
C70      C      0.432640000000     0.120870000000     0.083660000000     0.323273   
C71      C      0.432560000000     0.083170000000     0.121150000000     0.00856101 
C72      C      0.334050000000     0.140280000000     0.140740000000    -0.0514696  
C73      C      0.308860000000     0.382400000000     0.346680000000    -0.0332524  
C74      C      0.409320000000     0.414770000000     0.450800000000    -0.0306494  
C75      C      0.436730000000     0.460120000000     0.422770000000    -0.00737961 
C76      C      0.436650000000     0.422710000000     0.460210000000    -0.0060558  
C77      C      0.357920000000     0.419390000000     0.419330000000    -0.0535472  
C78      C      0.360280000000     0.377840000000     0.378120000000    -0.0540783  
C79      C      0.382150000000     0.409810000000     0.409850000000     0.0641699  
C80      C      0.409400000000     0.450780000000     0.414780000000    -0.0295849  
C81      C      0.336050000000     0.387420000000     0.387600000000     0.0657423  
C82      C      0.308860000000     0.346390000000     0.382680000000    -0.111098   
C83      C      0.335120000000     0.408220000000     0.408240000000    -0.0479693  
C84      C      0.281520000000     0.336950000000     0.374750000000     0.324661   
C85      C      0.281530000000     0.374450000000     0.337300000000     0.00921864 
C86      C      0.383080000000     0.389000000000     0.389210000000    -0.0505911  
C87      C      0.315540000000     0.171180000000     0.342630000000    -0.0333237  
C88      C      0.401400000000     0.125420000000     0.455240000000    -0.0289698  
C89      C      0.413470000000     0.068420000000     0.437700000000    -0.00822109 
C90      C      0.411790000000     0.104540000000     0.476630000000    -0.00867957 
C91      C      0.345570000000     0.129210000000     0.416160000000    -0.0517657  
C92      C      0.371470000000     0.167270000000     0.381610000000    -0.0494335  
C93      C      0.372640000000     0.129570000000     0.415770000000     0.0636079  
C94      C      0.402800000000     0.090840000000     0.417970000000    -0.0292198  
C95      C      0.344410000000     0.166910000000     0.382010000000     0.0652856  
C96      C      0.314330000000     0.205720000000     0.379930000000    -0.110762   
C97      C      0.331480000000     0.147690000000     0.399430000000    -0.0548095  
C98      C      0.303680000000     0.228250000000     0.360280000000     0.32346    
C99      C      0.305160000000     0.192100000000     0.321280000000     0.00842643 
C100     C      0.385560000000     0.148790000000     0.398340000000    -0.0542936  
C101     C      0.148530000000     0.375370000000     0.339630000000    -0.0302771  
C102     C      0.069710000000     0.422490000000     0.458810000000    -0.0290585  
C103     C      0.060990000000     0.480870000000     0.443870000000    -0.0133945  
C104     C      0.060800000000     0.443400000000     0.481090000000    -0.00868642 
C105     C      0.082120000000     0.400190000000     0.400250000000    -0.0534285  
C106     C      0.136140000000     0.397690000000     0.398180000000    -0.0545088  
C107     C      0.096910000000     0.417590000000     0.417880000000     0.0639972  
C108     C      0.069840000000     0.458690000000     0.422840000000    -0.0261338  
C109     C      0.121350000000     0.380280000000     0.380550000000     0.0666531  
C110     C      0.148450000000     0.339220000000     0.375610000000    -0.111071   
C111     C      0.094320000000     0.381730000000     0.381790000000    -0.0489255  
C112     C      0.157310000000     0.316950000000     0.354630000000     0.324884   
C113     C      0.157360000000     0.354440000000     0.317330000000     0.00498969 
C114     C      0.123930000000     0.416150000000     0.416650000000    -0.0495667  
C115     C      0.401910000000     0.455120000000     0.126200000000    -0.0334262  
C116     C      0.315900000000     0.342560000000     0.171780000000    -0.029365   
C117     C      0.303970000000     0.359990000000     0.228860000000    -0.00816073 
C118     C      0.305520000000     0.321140000000     0.192640000000    -0.00806836 
C119     C      0.371800000000     0.381550000000     0.168020000000    -0.0519938  
C120     C      0.345920000000     0.416230000000     0.130060000000    -0.0495218  
C121     C      0.344740000000     0.381970000000     0.167680000000     0.0635323  
C122     C      0.314630000000     0.379750000000     0.206450000000    -0.0293395  
C123     C      0.372990000000     0.415790000000     0.130400000000     0.0651408  
C124     C      0.403040000000     0.417900000000     0.091580000000    -0.11084    
C125     C      0.385900000000     0.398300000000     0.149570000000    -0.0548737  
C126     C      0.413720000000     0.437570000000     0.069080000000     0.323655   
C127     C      0.412320000000     0.476490000000     0.105310000000     0.00855481 
C128     C      0.331820000000     0.399470000000     0.148500000000    -0.0543083  
C129     C      0.446230000000     0.475490000000     0.569010000000     0.415787   
C130     C      0.445980000000     0.068550000000     0.975630000000     0.397036   
C131     C      0.453760000000     0.075150000000     0.575440000000     0.411032   
C132     C      0.457090000000     0.468810000000     0.968930000000     0.396384   
C133     C      0.026050000000     0.479130000000     0.979390000000     0.386291   
C134     C      0.019620000000     0.070900000000     0.570820000000     0.39147    
C135     C      0.022990000000     0.477300000000     0.568730000000     0.386208   
C136     C      0.022670000000     0.068930000000     0.977340000000     0.404128   
C137     C      0.271510000000     0.322030000000     0.728830000000     0.397304   
C138     C      0.271300000000     0.228440000000     0.822230000000     0.415196   
C139     C      0.260890000000     0.328430000000     0.828700000000     0.413944   
C140     C      0.263910000000     0.222130000000     0.722460000000     0.397081   
C141     C      0.198210000000     0.226570000000     0.726590000000     0.410594   
C142     C      0.191920000000     0.318500000000     0.818740000000     0.407374   
C143     C      0.194940000000     0.320210000000     0.728770000000     0.405776   
C144     C      0.194580000000     0.228900000000     0.820200000000     0.388889   
C145     C      0.149040000000     0.207860000000     0.671940000000    -0.0348088  
C146     C      0.069100000000     0.089740000000     0.625110000000    -0.0287192  
C147     C      0.043770000000     0.114750000000     0.576510000000    -0.00983653 
C148     C      0.043940000000     0.076760000000     0.614540000000    -0.00746411 
C149     C      0.083000000000     0.154400000000     0.654190000000    -0.0512716  
C150     C      0.135030000000     0.143280000000     0.642740000000    -0.0489049  
C151     C      0.089470000000     0.134370000000     0.633960000000     0.0648212  
C152     C      0.068950000000     0.125450000000     0.589330000000    -0.0274112  
C153     C      0.128560000000     0.163290000000     0.662970000000     0.0655833  
C154     C      0.149040000000     0.172090000000     0.707670000000    -0.112479   
C155     C      0.102340000000     0.168810000000     0.668640000000    -0.0543332  
C156     C      0.174290000000     0.182610000000     0.720520000000     0.324714   
C157     C      0.174200000000     0.220750000000     0.682640000000     0.00886698 
C158     C      0.115700000000     0.128870000000     0.628290000000    -0.0547325  
C159     C      0.065690000000     0.127030000000     0.956230000000    -0.0332031  
C160     C      0.151150000000     0.171200000000     0.841180000000    -0.0279913  
C161     C      0.160390000000     0.229440000000     0.856410000000    -0.0143762  
C162     C      0.161240000000     0.191740000000     0.819140000000    -0.0101891  
C163     C      0.135530000000     0.149480000000     0.899050000000    -0.0544677  
C164     C      0.081430000000     0.148850000000     0.898460000000    -0.0538679  
C165     C      0.122020000000     0.167270000000     0.880630000000     0.0647299  
C166     C      0.150410000000     0.207390000000     0.876970000000    -0.0252904  
C167     C      0.094940000000     0.131060000000     0.916880000000     0.0646426  
C168     C      0.066640000000     0.090860000000     0.920470000000    -0.110593   
C169     C      0.122020000000     0.131560000000     0.916980000000    -0.0488679  
C170     C      0.056710000000     0.068700000000     0.940970000000     0.322861   
C171     C      0.055630000000     0.106470000000     0.978260000000     0.00798874 
C172     C      0.094930000000     0.166770000000     0.880530000000    -0.0512554  
C173     C      0.151830000000     0.341290000000     0.670740000000    -0.0331305  
C174     C      0.066450000000     0.456340000000     0.626450000000    -0.0294374  
C175     C      0.057070000000     0.440960000000     0.568260000000    -0.00845775 
C176     C      0.056350000000     0.478340000000     0.605870000000    -0.00875134 
C177     C      0.082040000000     0.398510000000     0.648290000000    -0.0541483  
C178     C      0.136140000000     0.399050000000     0.648850000000    -0.0547546  
C179     C      0.095550000000     0.416870000000     0.630430000000     0.0631244  
C180     C      0.067090000000     0.420470000000     0.590350000000    -0.0294434  
C181     C      0.122630000000     0.380680000000     0.666700000000     0.0648294  
C182     C      0.151000000000     0.377100000000     0.706870000000    -0.110373   
C183     C      0.095550000000     0.380610000000     0.666240000000    -0.049501   
C184     C      0.160940000000     0.356620000000     0.729040000000     0.323049   
C185     C      0.161890000000     0.319280000000     0.691320000000     0.00803911 
C186     C      0.122630000000     0.416940000000     0.630900000000    -0.0518071  
C187     C      0.405920000000     0.093840000000     0.630190000000    -0.0335629  
C188     C      0.311790000000     0.203170000000     0.667850000000    -0.0290393  
C189     C      0.284960000000     0.176340000000     0.714360000000    -0.00968672 
C190     C      0.285140000000     0.213900000000     0.676790000000    -0.00807621 
C191     C      0.361850000000     0.168950000000     0.669790000000    -0.0544738  
C192     C      0.355810000000     0.127990000000     0.628430000000    -0.0544991  
C193     C      0.336820000000     0.160820000000     0.661470000000     0.0637097  
C194     C      0.311620000000     0.167260000000     0.703790000000    -0.0280993  
C195     C      0.380840000000     0.136130000000     0.636740000000     0.0646753  
C196     C      0.405970000000     0.129830000000     0.594360000000    -0.110411   
C197     C      0.383610000000     0.156660000000     0.657480000000    -0.0490716  
C198     C      0.432640000000     0.120870000000     0.583660000000     0.323287   
C199     C      0.432560000000     0.083170000000     0.621160000000     0.00844832 
C200     C      0.334050000000     0.140280000000     0.640740000000    -0.0514653  
C201     C      0.308860000000     0.382400000000     0.846680000000    -0.033252   
C202     C      0.409320000000     0.414770000000     0.950800000000    -0.0306555  
C203     C      0.436730000000     0.460120000000     0.922780000000    -0.00725435 
C204     C      0.436650000000     0.422710000000     0.960210000000    -0.00605216 
C205     C      0.357920000000     0.419390000000     0.919330000000    -0.0535588  
C206     C      0.360280000000     0.377840000000     0.878120000000    -0.0540823  
C207     C      0.382150000000     0.409810000000     0.909860000000     0.0641803  
C208     C      0.409400000000     0.450780000000     0.914780000000    -0.029637   
C209     C      0.336050000000     0.387420000000     0.887600000000     0.0657444  
C210     C      0.308860000000     0.346390000000     0.882680000000    -0.111095   
C211     C      0.335120000000     0.408220000000     0.908240000000    -0.0479582  
C212     C      0.281520000000     0.336950000000     0.874750000000     0.324648   
C213     C      0.281530000000     0.374450000000     0.837300000000     0.00921784 
C214     C      0.383080000000     0.389000000000     0.889210000000    -0.0505733  
C215     C      0.315540000000     0.171180000000     0.842630000000    -0.0333062  
C216     C      0.401400000000     0.125420000000     0.955240000000    -0.028968   
C217     C      0.413470000000     0.068420000000     0.937700000000    -0.0081851  
C218     C      0.411790000000     0.104540000000     0.976630000000    -0.00868382 
C219     C      0.345570000000     0.129210000000     0.916160000000    -0.051758   
C220     C      0.371470000000     0.167270000000     0.881610000000    -0.0494864  
C221     C      0.372640000000     0.129570000000     0.915770000000     0.0636031  
C222     C      0.402800000000     0.090840000000     0.917970000000    -0.0292335  
C223     C      0.344410000000     0.166910000000     0.882000000000     0.0653158  
C224     C      0.314330000000     0.205720000000     0.879930000000    -0.11078    
C225     C      0.331480000000     0.147690000000     0.899430000000    -0.0548036  
C226     C      0.303680000000     0.228250000000     0.860280000000     0.323532   
C227     C      0.305160000000     0.192100000000     0.821280000000     0.00838652 
C228     C      0.385560000000     0.148790000000     0.898340000000    -0.0542675  
C229     C      0.148530000000     0.375370000000     0.839630000000    -0.0302775  
C230     C      0.069710000000     0.422490000000     0.958810000000    -0.0290844  
C231     C      0.060990000000     0.480870000000     0.943870000000    -0.0133721  
C232     C      0.060800000000     0.443400000000     0.981090000000    -0.00866973 
C233     C      0.082120000000     0.400190000000     0.900250000000    -0.0534199  
C234     C      0.136140000000     0.397690000000     0.898180000000    -0.0544994  
C235     C      0.096910000000     0.417590000000     0.917880000000     0.06401    
C236     C      0.069840000000     0.458690000000     0.922840000000    -0.0261382  
C237     C      0.121350000000     0.380280000000     0.880550000000     0.0666741  
C238     C      0.148450000000     0.339220000000     0.875610000000    -0.111073   
C239     C      0.094320000000     0.381730000000     0.881780000000    -0.0489726  
C240     C      0.157310000000     0.316950000000     0.854630000000     0.324884   
C241     C      0.157360000000     0.354440000000     0.817330000000     0.0049897  
C242     C      0.123930000000     0.416150000000     0.916650000000    -0.0496003  
C243     C      0.401910000000     0.455120000000     0.626200000000    -0.0334416  
C244     C      0.315900000000     0.342560000000     0.671780000000    -0.0293701  
C245     C      0.303970000000     0.359990000000     0.728860000000    -0.00816076 
C246     C      0.305520000000     0.321140000000     0.692640000000    -0.00806674 
C247     C      0.371800000000     0.381550000000     0.668020000000    -0.0519826  
C248     C      0.345920000000     0.416230000000     0.630060000000    -0.0495033  
C249     C      0.344740000000     0.381970000000     0.667670000000     0.0635218  
C250     C      0.314630000000     0.379750000000     0.706450000000    -0.0293403  
C251     C      0.372990000000     0.415790000000     0.630400000000     0.0651166  
C252     C      0.403040000000     0.417900000000     0.591580000000    -0.110819   
C253     C      0.385900000000     0.398300000000     0.649580000000    -0.0548498  
C254     C      0.413720000000     0.437570000000     0.569080000000     0.323601   
C255     C      0.412320000000     0.476490000000     0.605310000000     0.00860863 
C256     C      0.331820000000     0.399470000000     0.648500000000    -0.0543216  
C257     C      0.446230000000     0.975480000000     0.069010000000     0.415785   
C258     C      0.445980000000     0.568550000000     0.475630000000     0.397044   
C259     C      0.453760000000     0.575150000000     0.075430000000     0.41108    
C260     C      0.457090000000     0.968810000000     0.468930000000     0.396381   
C261     C      0.026050000000     0.979130000000     0.479390000000     0.386316   
C262     C      0.019620000000     0.570900000000     0.070820000000     0.391467   
C263     C      0.022990000000     0.977300000000     0.068730000000     0.386191   
C264     C      0.022670000000     0.568930000000     0.477340000000     0.404145   
C265     C      0.271510000000     0.822030000000     0.228830000000     0.397307   
C266     C      0.271300000000     0.728440000000     0.322230000000     0.41524    
C267     C      0.260890000000     0.828440000000     0.328700000000     0.413894   
C268     C      0.263910000000     0.722130000000     0.222460000000     0.397082   
C269     C      0.198210000000     0.726570000000     0.226590000000     0.410378   
C270     C      0.191920000000     0.818500000000     0.318740000000     0.407374   
C271     C      0.194940000000     0.820210000000     0.228770000000     0.405779   
C272     C      0.194580000000     0.728900000000     0.320200000000     0.38889    
C273     C      0.149040000000     0.707860000000     0.171940000000    -0.0348581  
C274     C      0.069100000000     0.589740000000     0.125110000000    -0.0287133  
C275     C      0.043770000000     0.614750000000     0.076500000000    -0.00993028 
C276     C      0.043940000000     0.576760000000     0.114540000000    -0.00747062 
C277     C      0.083000000000     0.654400000000     0.154190000000    -0.0512628  
C278     C      0.135030000000     0.643280000000     0.142740000000    -0.0488627  
C279     C      0.089470000000     0.634370000000     0.133960000000     0.0648433  
C280     C      0.068950000000     0.625450000000     0.089330000000    -0.0273352  
C281     C      0.128560000000     0.663300000000     0.162970000000     0.0655699  
C282     C      0.149040000000     0.672090000000     0.207670000000    -0.112683   
C283     C      0.102340000000     0.668810000000     0.168640000000    -0.0543399  
C284     C      0.174290000000     0.682600000000     0.220520000000     0.324872   
C285     C      0.174200000000     0.720750000000     0.182640000000     0.00887414 
C286     C      0.115700000000     0.628870000000     0.128290000000    -0.0547912  
C287     C      0.065690000000     0.627030000000     0.456230000000    -0.0331869  
C288     C      0.151150000000     0.671200000000     0.341180000000    -0.0280735  
C289     C      0.160390000000     0.729440000000     0.356420000000    -0.0144439  
C290     C      0.161240000000     0.691750000000     0.319150000000    -0.00999277 
C291     C      0.135530000000     0.649480000000     0.399050000000    -0.0544682  
C292     C      0.081430000000     0.648850000000     0.398460000000    -0.0538682  
C293     C      0.122020000000     0.667270000000     0.380630000000     0.0647289  
C294     C      0.150410000000     0.707390000000     0.376970000000    -0.0252895  
C295     C      0.094940000000     0.631060000000     0.416880000000     0.0646409  
C296     C      0.066640000000     0.590860000000     0.420470000000    -0.110628   
C297     C      0.122020000000     0.631560000000     0.416980000000    -0.0488676  
C298     C      0.056710000000     0.568700000000     0.440970000000     0.323013   
C299     C      0.055630000000     0.606470000000     0.478260000000     0.00799738 
C300     C      0.094930000000     0.666770000000     0.380530000000    -0.0512557  
C301     C      0.151830000000     0.841290000000     0.170740000000    -0.0331411  
C302     C      0.066450000000     0.956340000000     0.126450000000    -0.0295009  
C303     C      0.057070000000     0.940960000000     0.068260000000    -0.00846317 
C304     C      0.056350000000     0.978340000000     0.105870000000    -0.00873408 
C305     C      0.082040000000     0.898510000000     0.148290000000    -0.054108   
C306     C      0.136140000000     0.899050000000     0.148850000000    -0.0547754  
C307     C      0.095550000000     0.916870000000     0.130430000000     0.0630717  
C308     C      0.067090000000     0.920470000000     0.090350000000    -0.029412   
C309     C      0.122630000000     0.880680000000     0.166700000000     0.0648563  
C310     C      0.151000000000     0.877100000000     0.206870000000    -0.110373   
C311     C      0.095550000000     0.880610000000     0.166240000000    -0.0495569  
C312     C      0.160940000000     0.856620000000     0.229040000000     0.323052   
C313     C      0.161890000000     0.819280000000     0.191320000000     0.00808339 
C314     C      0.122630000000     0.916940000000     0.130900000000    -0.0517773  
C315     C      0.405920000000     0.593840000000     0.130190000000    -0.0335685  
C316     C      0.311790000000     0.703160000000     0.167850000000    -0.0289276  
C317     C      0.284960000000     0.676340000000     0.214360000000    -0.00964325 
C318     C      0.285140000000     0.713900000000     0.176790000000    -0.008125   
C319     C      0.361850000000     0.668950000000     0.169790000000    -0.0544619  
C320     C      0.355810000000     0.627990000000     0.128430000000    -0.0544937  
C321     C      0.336820000000     0.660810000000     0.161470000000     0.0637038  
C322     C      0.311620000000     0.667260000000     0.203790000000    -0.0281169  
C323     C      0.380840000000     0.636130000000     0.136740000000     0.0646753  
C324     C      0.405970000000     0.629830000000     0.094360000000    -0.110411   
C325     C      0.383610000000     0.656660000000     0.157480000000    -0.0490776  
C326     C      0.432640000000     0.620870000000     0.083660000000     0.323274   
C327     C      0.432560000000     0.583170000000     0.121150000000     0.00856045 
C328     C      0.334050000000     0.640280000000     0.140740000000    -0.0514837  
C329     C      0.308860000000     0.882400000000     0.346680000000    -0.0332508  
C330     C      0.409320000000     0.914770000000     0.450800000000    -0.0306525  
C331     C      0.436730000000     0.960120000000     0.422770000000    -0.00738686 
C332     C      0.436650000000     0.922710000000     0.460210000000    -0.00605375 
C333     C      0.357920000000     0.919390000000     0.419330000000    -0.0535318  
C334     C      0.360280000000     0.877840000000     0.378120000000    -0.0540698  
C335     C      0.382150000000     0.909800000000     0.409850000000     0.0641707  
C336     C      0.409400000000     0.950780000000     0.414780000000    -0.0295671  
C337     C      0.336050000000     0.887420000000     0.387600000000     0.0657434  
C338     C      0.308860000000     0.846390000000     0.382680000000    -0.111101   
C339     C      0.335120000000     0.908220000000     0.408240000000    -0.0479701  
C340     C      0.281520000000     0.836950000000     0.374750000000     0.324676   
C341     C      0.281530000000     0.874450000000     0.337300000000     0.00921822 
C342     C      0.383080000000     0.889000000000     0.389210000000    -0.0506085  
C343     C      0.315540000000     0.671180000000     0.342630000000    -0.033325   
C344     C      0.401400000000     0.625420000000     0.455240000000    -0.0289692  
C345     C      0.413470000000     0.568420000000     0.437700000000    -0.00821877 
C346     C      0.411790000000     0.604540000000     0.476630000000    -0.00867982 
C347     C      0.345570000000     0.629210000000     0.416160000000    -0.0517634  
C348     C      0.371470000000     0.667270000000     0.381610000000    -0.0494317  
C349     C      0.372640000000     0.629570000000     0.415770000000     0.0636116  
C350     C      0.402800000000     0.590840000000     0.417970000000    -0.0292385  
C351     C      0.344410000000     0.666910000000     0.382010000000     0.0652862  
C352     C      0.314330000000     0.705720000000     0.379930000000    -0.110763   
C353     C      0.331480000000     0.647690000000     0.399430000000    -0.0548064  
C354     C      0.303680000000     0.728250000000     0.360280000000     0.32346    
C355     C      0.305160000000     0.692100000000     0.321280000000     0.00842693 
C356     C      0.385560000000     0.648790000000     0.398340000000    -0.0542929  
C357     C      0.148530000000     0.875370000000     0.339630000000    -0.0302782  
C358     C      0.069710000000     0.922490000000     0.458810000000    -0.0290759  
C359     C      0.060990000000     0.980870000000     0.443870000000    -0.0133414  
C360     C      0.060800000000     0.943400000000     0.481090000000    -0.00872427 
C361     C      0.082120000000     0.900190000000     0.400250000000    -0.0534268  
C362     C      0.136140000000     0.897690000000     0.398180000000    -0.0545082  
C363     C      0.096910000000     0.917590000000     0.417880000000     0.0640007  
C364     C      0.069840000000     0.958690000000     0.422840000000    -0.0261532  
C365     C      0.121350000000     0.880280000000     0.380550000000     0.0666573  
C366     C      0.148450000000     0.839220000000     0.375610000000    -0.111072   
C367     C      0.094320000000     0.881730000000     0.381790000000    -0.0489246  
C368     C      0.157310000000     0.816950000000     0.354630000000     0.324883   
C369     C      0.157360000000     0.854440000000     0.317330000000     0.00498998 
C370     C      0.123930000000     0.916150000000     0.416650000000    -0.0495644  
C371     C      0.401910000000     0.955120000000     0.126200000000    -0.0334283  
C372     C      0.315900000000     0.842560000000     0.171780000000    -0.0293669  
C373     C      0.303970000000     0.859990000000     0.228860000000    -0.00812337 
C374     C      0.305520000000     0.821140000000     0.192640000000    -0.00806741 
C375     C      0.371800000000     0.881550000000     0.168020000000    -0.051983   
C376     C      0.345920000000     0.916230000000     0.130060000000    -0.0495682  
C377     C      0.344740000000     0.881970000000     0.167680000000     0.0635239  
C378     C      0.314630000000     0.879750000000     0.206450000000    -0.0293556  
C379     C      0.372990000000     0.915790000000     0.130400000000     0.0651652  
C380     C      0.403040000000     0.917900000000     0.091580000000    -0.110839   
C381     C      0.385900000000     0.898300000000     0.149570000000    -0.0548835  
C382     C      0.413720000000     0.937570000000     0.069080000000     0.323654   
C383     C      0.412320000000     0.976490000000     0.105310000000     0.00856615 
C384     C      0.331820000000     0.899470000000     0.148500000000    -0.0542825  
C385     C      0.446230000000     0.975480000000     0.569010000000     0.41572    
C386     C      0.445980000000     0.568550000000     0.975630000000     0.397039   
C387     C      0.453760000000     0.575150000000     0.575440000000     0.411036   
C388     C      0.457090000000     0.968810000000     0.968930000000     0.396381   
C389     C      0.026050000000     0.979130000000     0.979390000000     0.386485   
C390     C      0.019620000000     0.570900000000     0.570820000000     0.391475   
C391     C      0.022990000000     0.977300000000     0.568730000000     0.386202   
C392     C      0.022670000000     0.568930000000     0.977340000000     0.404138   
C393     C      0.271510000000     0.822030000000     0.728830000000     0.397307   
C394     C      0.271300000000     0.728440000000     0.822230000000     0.415197   
C395     C      0.260890000000     0.828440000000     0.828700000000     0.413893   
C396     C      0.263910000000     0.722130000000     0.722460000000     0.397082   
C397     C      0.198210000000     0.726570000000     0.726590000000     0.41059    
C398     C      0.191920000000     0.818500000000     0.818740000000     0.407373   
C399     C      0.194940000000     0.820210000000     0.728770000000     0.405778   
C400     C      0.194580000000     0.728900000000     0.820200000000     0.388891   
C401     C      0.149040000000     0.707860000000     0.671940000000    -0.0348607  
C402     C      0.069100000000     0.589740000000     0.625110000000    -0.0287183  
C403     C      0.043770000000     0.614750000000     0.576510000000    -0.00983499 
C404     C      0.043940000000     0.576760000000     0.614540000000    -0.00746541 
C405     C      0.083000000000     0.654400000000     0.654190000000    -0.0512795  
C406     C      0.135030000000     0.643280000000     0.642740000000    -0.0488558  
C407     C      0.089470000000     0.634370000000     0.633960000000     0.0648467  
C408     C      0.068950000000     0.625450000000     0.589330000000    -0.0274118  
C409     C      0.128560000000     0.663300000000     0.662970000000     0.0655675  
C410     C      0.149040000000     0.672090000000     0.707670000000    -0.112688   
C411     C      0.102340000000     0.668810000000     0.668640000000    -0.0543279  
C412     C      0.174290000000     0.682600000000     0.720520000000     0.324883   
C413     C      0.174200000000     0.720750000000     0.682640000000     0.00888078 
C414     C      0.115700000000     0.628870000000     0.628290000000    -0.0547908  
C415     C      0.065690000000     0.627030000000     0.956230000000    -0.0332039  
C416     C      0.151150000000     0.671200000000     0.841180000000    -0.0280306  
C417     C      0.160390000000     0.729440000000     0.856410000000    -0.014374   
C418     C      0.161240000000     0.691750000000     0.819140000000    -0.0101043  
C419     C      0.135530000000     0.649480000000     0.899050000000    -0.0544648  
C420     C      0.081430000000     0.648850000000     0.898460000000    -0.0538671  
C421     C      0.122020000000     0.667270000000     0.880630000000     0.0647305  
C422     C      0.150410000000     0.707390000000     0.876970000000    -0.0252937  
C423     C      0.094940000000     0.631060000000     0.916880000000     0.0646453  
C424     C      0.066640000000     0.590860000000     0.920470000000    -0.110628   
C425     C      0.122020000000     0.631560000000     0.916980000000    -0.0488646  
C426     C      0.056710000000     0.568700000000     0.940970000000     0.323015   
C427     C      0.055630000000     0.606470000000     0.978260000000     0.00799751 
C428     C      0.094930000000     0.666770000000     0.880530000000    -0.0512538  
C429     C      0.151830000000     0.841290000000     0.670740000000    -0.033143   
C430     C      0.066450000000     0.956340000000     0.626450000000    -0.0294346  
C431     C      0.057070000000     0.940960000000     0.568260000000    -0.00845838 
C432     C      0.056350000000     0.978340000000     0.605870000000    -0.00875604 
C433     C      0.082040000000     0.898510000000     0.648290000000    -0.0541477  
C434     C      0.136140000000     0.899050000000     0.648850000000    -0.0547509  
C435     C      0.095550000000     0.916870000000     0.630430000000     0.0631282  
C436     C      0.067090000000     0.920470000000     0.590350000000    -0.0294426  
C437     C      0.122630000000     0.880680000000     0.666700000000     0.0648301  
C438     C      0.151000000000     0.877100000000     0.706870000000    -0.110375   
C439     C      0.095550000000     0.880610000000     0.666240000000    -0.0494986  
C440     C      0.160940000000     0.856620000000     0.729040000000     0.323052   
C441     C      0.161890000000     0.819280000000     0.691320000000     0.00808393 
C442     C      0.122630000000     0.916940000000     0.630900000000    -0.0518044  
C443     C      0.405920000000     0.593840000000     0.630190000000    -0.0335631  
C444     C      0.311790000000     0.703160000000     0.667850000000    -0.0289277  
C445     C      0.284960000000     0.676340000000     0.714360000000    -0.00964353 
C446     C      0.285140000000     0.713900000000     0.676790000000    -0.00812554 
C447     C      0.361850000000     0.668950000000     0.669790000000    -0.0544607  
C448     C      0.355810000000     0.627990000000     0.628430000000    -0.0544906  
C449     C      0.336820000000     0.660810000000     0.661470000000     0.0637059  
C450     C      0.311620000000     0.667260000000     0.703790000000    -0.028117   
C451     C      0.380840000000     0.636130000000     0.636740000000     0.0646768  
C452     C      0.405970000000     0.629830000000     0.594360000000    -0.110412   
C453     C      0.383610000000     0.656660000000     0.657480000000    -0.0490756  
C454     C      0.432640000000     0.620870000000     0.583660000000     0.323288   
C455     C      0.432560000000     0.583170000000     0.621160000000     0.00844776 
C456     C      0.334050000000     0.640280000000     0.640740000000    -0.0514794  
C457     C      0.308860000000     0.882400000000     0.846680000000    -0.0332504  
C458     C      0.409320000000     0.914770000000     0.950800000000    -0.0306586  
C459     C      0.436730000000     0.960120000000     0.922780000000    -0.0072616  
C460     C      0.436650000000     0.922710000000     0.960210000000    -0.00605011 
C461     C      0.357920000000     0.919390000000     0.919330000000    -0.0535434  
C462     C      0.360280000000     0.877840000000     0.878120000000    -0.0540738  
C463     C      0.382150000000     0.909800000000     0.909860000000     0.064181   
C464     C      0.409400000000     0.950780000000     0.914780000000    -0.0296192  
C465     C      0.336050000000     0.887420000000     0.887600000000     0.0657455  
C466     C      0.308860000000     0.846390000000     0.882680000000    -0.111098   
C467     C      0.335120000000     0.908220000000     0.908240000000    -0.047959   
C468     C      0.281520000000     0.836950000000     0.874750000000     0.324663   
C469     C      0.281530000000     0.874450000000     0.837300000000     0.00921742 
C470     C      0.383080000000     0.889000000000     0.889210000000    -0.0505906  
C471     C      0.315540000000     0.671180000000     0.842630000000    -0.0333075  
C472     C      0.401400000000     0.625420000000     0.955240000000    -0.0289674  
C473     C      0.413470000000     0.568420000000     0.937700000000    -0.00818274 
C474     C      0.411790000000     0.604540000000     0.976630000000    -0.00868405 
C475     C      0.345570000000     0.629210000000     0.916160000000    -0.0517558  
C476     C      0.371470000000     0.667270000000     0.881610000000    -0.0494847  
C477     C      0.372640000000     0.629570000000     0.915770000000     0.0636068  
C478     C      0.402800000000     0.590840000000     0.917970000000    -0.0292523  
C479     C      0.344410000000     0.666910000000     0.882000000000     0.0653164  
C480     C      0.314330000000     0.705720000000     0.879930000000    -0.110781   
C481     C      0.331480000000     0.647690000000     0.899430000000    -0.0548006  
C482     C      0.303680000000     0.728250000000     0.860280000000     0.323532   
C483     C      0.305160000000     0.692100000000     0.821280000000     0.00838702 
C484     C      0.385560000000     0.648790000000     0.898340000000    -0.0542668  
C485     C      0.148530000000     0.875370000000     0.839630000000    -0.0302786  
C486     C      0.069710000000     0.922490000000     0.958810000000    -0.0291019  
C487     C      0.060990000000     0.980870000000     0.943870000000    -0.0133191  
C488     C      0.060800000000     0.943400000000     0.981090000000    -0.00870765 
C489     C      0.082120000000     0.900190000000     0.900250000000    -0.0534182  
C490     C      0.136140000000     0.897690000000     0.898180000000    -0.0544988  
C491     C      0.096910000000     0.917590000000     0.917880000000     0.0640135  
C492     C      0.069840000000     0.958690000000     0.922840000000    -0.0261576  
C493     C      0.121350000000     0.880280000000     0.880550000000     0.0666783  
C494     C      0.148450000000     0.839220000000     0.875610000000    -0.111073   
C495     C      0.094320000000     0.881730000000     0.881780000000    -0.0489717  
C496     C      0.157310000000     0.816950000000     0.854630000000     0.324884   
C497     C      0.157360000000     0.854440000000     0.817330000000     0.00498998 
C498     C      0.123930000000     0.916150000000     0.916650000000    -0.0495981  
C499     C      0.401910000000     0.955120000000     0.626200000000    -0.0334437  
C500     C      0.315900000000     0.842560000000     0.671780000000    -0.029372   
C501     C      0.303970000000     0.859990000000     0.728860000000    -0.0081234  
C502     C      0.305520000000     0.821140000000     0.692640000000    -0.00806579 
C503     C      0.371800000000     0.881550000000     0.668020000000    -0.0519718  
C504     C      0.345920000000     0.916230000000     0.630060000000    -0.0495497  
C505     C      0.344740000000     0.881970000000     0.667670000000     0.0635135  
C506     C      0.314630000000     0.879750000000     0.706450000000    -0.0293564  
C507     C      0.372990000000     0.915790000000     0.630400000000     0.065141   
C508     C      0.403040000000     0.917900000000     0.591580000000    -0.110818   
C509     C      0.385900000000     0.898300000000     0.649580000000    -0.0548595  
C510     C      0.413720000000     0.937570000000     0.569080000000     0.323599   
C511     C      0.412320000000     0.976490000000     0.605310000000     0.00861998 
C512     C      0.331820000000     0.899470000000     0.648500000000    -0.0542958  
C513     C      0.946230000000     0.475490000000     0.069010000000     0.41576    
C514     C      0.945980000000     0.068550000000     0.475630000000     0.396951   
C515     C      0.953760000000     0.075150000000     0.075430000000     0.410984   
C516     C      0.957090000000     0.468810000000     0.468930000000     0.396217   
C517     C      0.526050000000     0.479130000000     0.479390000000     0.386191   
C518     C      0.519620000000     0.070900000000     0.070820000000     0.391541   
C519     C      0.522990000000     0.477300000000     0.068730000000     0.386276   
C520     C      0.522670000000     0.068930000000     0.477340000000     0.404215   
C521     C      0.771510000000     0.322030000000     0.228830000000     0.397305   
C522     C      0.771300000000     0.228440000000     0.322230000000     0.415239   
C523     C      0.760890000000     0.328430000000     0.328700000000     0.413946   
C524     C      0.763910000000     0.222130000000     0.222460000000     0.397078   
C525     C      0.698210000000     0.226570000000     0.226590000000     0.410442   
C526     C      0.691920000000     0.318500000000     0.318740000000     0.407376   
C527     C      0.694940000000     0.320210000000     0.228770000000     0.405779   
C528     C      0.694580000000     0.228900000000     0.320200000000     0.388888   
C529     C      0.649040000000     0.207860000000     0.171940000000    -0.0347982  
C530     C      0.569100000000     0.089740000000     0.125110000000    -0.0287304  
C531     C      0.543770000000     0.114750000000     0.076500000000    -0.00991297 
C532     C      0.543940000000     0.076760000000     0.114540000000    -0.00745085 
C533     C      0.583000000000     0.154400000000     0.154190000000    -0.0512698  
C534     C      0.635030000000     0.143280000000     0.142740000000    -0.0489184  
C535     C      0.589470000000     0.134370000000     0.133960000000     0.0647943  
C536     C      0.568950000000     0.125450000000     0.089330000000    -0.0273511  
C537     C      0.628560000000     0.163290000000     0.162970000000     0.0655855  
C538     C      0.649040000000     0.172090000000     0.207670000000    -0.112468   
C539     C      0.602340000000     0.168810000000     0.168640000000    -0.0543678  
C540     C      0.674290000000     0.182610000000     0.220520000000     0.324704   
C541     C      0.674200000000     0.220750000000     0.182640000000     0.00885825 
C542     C      0.615700000000     0.128870000000     0.128290000000    -0.0547278  
C543     C      0.565690000000     0.127030000000     0.456230000000    -0.033175   
C544     C      0.651150000000     0.171200000000     0.341180000000    -0.0280353  
C545     C      0.660390000000     0.229440000000     0.356420000000    -0.0144431  
C546     C      0.661240000000     0.191740000000     0.319150000000    -0.0100741  
C547     C      0.635530000000     0.149480000000     0.399050000000    -0.0544742  
C548     C      0.581430000000     0.148850000000     0.398460000000    -0.053882   
C549     C      0.622020000000     0.167270000000     0.380630000000     0.0647211  
C550     C      0.650410000000     0.207390000000     0.376970000000    -0.0252869  
C551     C      0.594940000000     0.131060000000     0.416880000000     0.0646246  
C552     C      0.566630000000     0.090860000000     0.420470000000    -0.110704   
C553     C      0.622020000000     0.131560000000     0.416980000000    -0.0488703  
C554     C      0.556710000000     0.068700000000     0.440970000000     0.322912   
C555     C      0.555630000000     0.106470000000     0.478260000000     0.0079825  
C556     C      0.594930000000     0.166770000000     0.380530000000    -0.0512825  
C557     C      0.651830000000     0.341290000000     0.170740000000    -0.0331295  
C558     C      0.566450000000     0.456340000000     0.126450000000    -0.0294943  
C559     C      0.557070000000     0.440960000000     0.068260000000    -0.0084796  
C560     C      0.556350000000     0.478340000000     0.105870000000    -0.00873909 
C561     C      0.582040000000     0.398510000000     0.148290000000    -0.0541228  
C562     C      0.636140000000     0.399050000000     0.148850000000    -0.0547811  
C563     C      0.595550000000     0.416870000000     0.130430000000     0.0630593  
C564     C      0.567090000000     0.420470000000     0.090350000000    -0.0293846  
C565     C      0.622630000000     0.380680000000     0.166700000000     0.064848   
C566     C      0.651000000000     0.377100000000     0.206870000000    -0.110371   
C567     C      0.595550000000     0.380610000000     0.166240000000    -0.0495833  
C568     C      0.660940000000     0.356620000000     0.229040000000     0.32305    
C569     C      0.661890000000     0.319280000000     0.191320000000     0.00804194 
C570     C      0.622630000000     0.416940000000     0.130900000000    -0.0517808  
C571     C      0.905920000000     0.093840000000     0.130190000000    -0.033579   
C572     C      0.811790000000     0.203170000000     0.167850000000    -0.0290753  
C573     C      0.784960000000     0.176340000000     0.214360000000    -0.00968796 
C574     C      0.785140000000     0.213900000000     0.176790000000    -0.00806625 
C575     C      0.861850000000     0.168950000000     0.169790000000    -0.0544917  
C576     C      0.855810000000     0.127990000000     0.128430000000    -0.0544977  
C577     C      0.836820000000     0.160820000000     0.161470000000     0.0637085  
C578     C      0.811620000000     0.167260000000     0.203790000000    -0.0280943  
C579     C      0.880840000000     0.136130000000     0.136740000000     0.0646558  
C580     C      0.905970000000     0.129830000000     0.094360000000    -0.110413   
C581     C      0.883610000000     0.156660000000     0.157480000000    -0.0490842  
C582     C      0.932640000000     0.120870000000     0.083660000000     0.323265   
C583     C      0.932560000000     0.083170000000     0.121150000000     0.00857207 
C584     C      0.834050000000     0.140280000000     0.140740000000    -0.0514737  
C585     C      0.808860000000     0.382400000000     0.346680000000    -0.0332465  
C586     C      0.909320000000     0.414770000000     0.450800000000    -0.0306545  
C587     C      0.936740000000     0.460120000000     0.422770000000    -0.00739867 
C588     C      0.936650000000     0.422710000000     0.460210000000    -0.00604859 
C589     C      0.857920000000     0.419390000000     0.419330000000    -0.0535425  
C590     C      0.860280000000     0.377840000000     0.378120000000    -0.0540946  
C591     C      0.882150000000     0.409810000000     0.409850000000     0.0641522  
C592     C      0.909400000000     0.450780000000     0.414780000000    -0.0295826  
C593     C      0.836050000000     0.387420000000     0.387600000000     0.0657439  
C594     C      0.808860000000     0.346390000000     0.382680000000    -0.111092   
C595     C      0.835120000000     0.408220000000     0.408240000000    -0.0479734  
C596     C      0.781520000000     0.336950000000     0.374750000000     0.324661   
C597     C      0.781530000000     0.374450000000     0.337300000000     0.00921732 
C598     C      0.883080000000     0.389000000000     0.389210000000    -0.0506009  
C599     C      0.815540000000     0.171180000000     0.342630000000    -0.0333244  
C600     C      0.901400000000     0.125420000000     0.455240000000    -0.0289595  
C601     C      0.913470000000     0.068420000000     0.437700000000    -0.00823585 
C602     C      0.911790000000     0.104540000000     0.476630000000    -0.00869487 
C603     C      0.845570000000     0.129210000000     0.416160000000    -0.051765   
C604     C      0.871470000000     0.167270000000     0.381610000000    -0.0494532  
C605     C      0.872640000000     0.129570000000     0.415770000000     0.0635999  
C606     C      0.902800000000     0.090840000000     0.417970000000    -0.0292098  
C607     C      0.844410000000     0.166910000000     0.382010000000     0.0652802  
C608     C      0.814330000000     0.205720000000     0.379930000000    -0.110762   
C609     C      0.831480000000     0.147690000000     0.399430000000    -0.0548105  
C610     C      0.803680000000     0.228250000000     0.360280000000     0.323461   
C611     C      0.805160000000     0.192100000000     0.321280000000     0.00842966 
C612     C      0.885560000000     0.148790000000     0.398340000000    -0.054305   
C613     C      0.648530000000     0.375370000000     0.339630000000    -0.0302781  
C614     C      0.569710000000     0.422490000000     0.458810000000    -0.0290479  
C615     C      0.560990000000     0.480870000000     0.443870000000    -0.013407   
C616     C      0.560800000000     0.443400000000     0.481090000000    -0.0086985  
C617     C      0.582120000000     0.400190000000     0.400250000000    -0.053466   
C618     C      0.636140000000     0.397690000000     0.398180000000    -0.0545215  
C619     C      0.596900000000     0.417590000000     0.417880000000     0.0639919  
C620     C      0.569840000000     0.458690000000     0.422840000000    -0.0261231  
C621     C      0.621350000000     0.380280000000     0.380550000000     0.0666454  
C622     C      0.648450000000     0.339220000000     0.375610000000    -0.111071   
C623     C      0.594320000000     0.381730000000     0.381790000000    -0.0489419  
C624     C      0.657310000000     0.316950000000     0.354630000000     0.324885   
C625     C      0.657360000000     0.354440000000     0.317330000000     0.00499311 
C626     C      0.623930000000     0.416150000000     0.416650000000    -0.0495386  
C627     C      0.901910000000     0.455120000000     0.126200000000    -0.0333971  
C628     C      0.815900000000     0.342560000000     0.171780000000    -0.0293659  
C629     C      0.803970000000     0.359990000000     0.228860000000    -0.00815753 
C630     C      0.805520000000     0.321140000000     0.192640000000    -0.00806499 
C631     C      0.871800000000     0.381550000000     0.168020000000    -0.0520135  
C632     C      0.845920000000     0.416230000000     0.130060000000    -0.0495211  
C633     C      0.844740000000     0.381970000000     0.167680000000     0.0635267  
C634     C      0.814630000000     0.379750000000     0.206450000000    -0.0293403  
C635     C      0.872990000000     0.415790000000     0.130400000000     0.065133   
C636     C      0.903040000000     0.417900000000     0.091580000000    -0.11083    
C637     C      0.885900000000     0.398300000000     0.149570000000    -0.0548854  
C638     C      0.913720000000     0.437570000000     0.069080000000     0.323643   
C639     C      0.912320000000     0.476490000000     0.105310000000     0.00849375 
C640     C      0.831820000000     0.399470000000     0.148500000000    -0.0543092  
C641     C      0.946230000000     0.475490000000     0.569010000000     0.415695   
C642     C      0.945980000000     0.068550000000     0.975630000000     0.396946   
C643     C      0.953760000000     0.075150000000     0.575440000000     0.41094    
C644     C      0.957090000000     0.468810000000     0.968930000000     0.396218   
C645     C      0.526050000000     0.479130000000     0.979390000000     0.386363   
C646     C      0.519620000000     0.070900000000     0.570820000000     0.391549   
C647     C      0.522990000000     0.477300000000     0.568730000000     0.386287   
C648     C      0.522670000000     0.068930000000     0.977340000000     0.404208   
C649     C      0.771510000000     0.322030000000     0.728830000000     0.397306   
C650     C      0.771300000000     0.228440000000     0.822230000000     0.415196   
C651     C      0.760890000000     0.328430000000     0.828700000000     0.413945   
C652     C      0.763910000000     0.222130000000     0.722460000000     0.397078   
C653     C      0.698210000000     0.226570000000     0.726590000000     0.410654   
C654     C      0.691920000000     0.318500000000     0.818740000000     0.407375   
C655     C      0.694940000000     0.320210000000     0.728770000000     0.405778   
C656     C      0.694580000000     0.228900000000     0.820200000000     0.38889    
C657     C      0.649040000000     0.207860000000     0.671940000000    -0.0348008  
C658     C      0.569100000000     0.089740000000     0.625110000000    -0.0287354  
C659     C      0.543770000000     0.114750000000     0.576510000000    -0.00981769 
C660     C      0.543940000000     0.076760000000     0.614540000000    -0.00744564 
C661     C      0.583000000000     0.154400000000     0.654190000000    -0.0512865  
C662     C      0.635030000000     0.143280000000     0.642740000000    -0.0489115  
C663     C      0.589470000000     0.134370000000     0.633960000000     0.0647978  
C664     C      0.568950000000     0.125450000000     0.589330000000    -0.0274276  
C665     C      0.628560000000     0.163290000000     0.662970000000     0.0655831  
C666     C      0.649040000000     0.172090000000     0.707670000000    -0.112472   
C667     C      0.602340000000     0.168810000000     0.668640000000    -0.0543559  
C668     C      0.674290000000     0.182610000000     0.720520000000     0.324716   
C669     C      0.674200000000     0.220750000000     0.682640000000     0.00886489 
C670     C      0.615700000000     0.128870000000     0.628290000000    -0.0547274  
C671     C      0.565690000000     0.127030000000     0.956230000000    -0.0331919  
C672     C      0.651150000000     0.171200000000     0.841180000000    -0.0279923  
C673     C      0.660390000000     0.229440000000     0.856410000000    -0.0143732  
C674     C      0.661240000000     0.191740000000     0.819140000000    -0.0101857  
C675     C      0.635530000000     0.149480000000     0.899050000000    -0.0544707  
C676     C      0.581430000000     0.148850000000     0.898460000000    -0.0538809  
C677     C      0.622020000000     0.167270000000     0.880630000000     0.0647227  
C678     C      0.650410000000     0.207390000000     0.876970000000    -0.0252912  
C679     C      0.594940000000     0.131060000000     0.916880000000     0.0646291  
C680     C      0.566630000000     0.090860000000     0.920470000000    -0.110704   
C681     C      0.622020000000     0.131560000000     0.916980000000    -0.0488672  
C682     C      0.556710000000     0.068700000000     0.940970000000     0.322913   
C683     C      0.555630000000     0.106470000000     0.978260000000     0.00798257 
C684     C      0.594930000000     0.166770000000     0.880530000000    -0.0512805  
C685     C      0.651830000000     0.341290000000     0.670740000000    -0.0331314  
C686     C      0.566450000000     0.456340000000     0.626450000000    -0.0294279  
C687     C      0.557070000000     0.440960000000     0.568260000000    -0.00847485 
C688     C      0.556350000000     0.478340000000     0.605870000000    -0.00876107 
C689     C      0.582040000000     0.398510000000     0.648290000000    -0.0541625  
C690     C      0.636140000000     0.399050000000     0.648850000000    -0.0547566  
C691     C      0.595550000000     0.416870000000     0.630430000000     0.0631158  
C692     C      0.567090000000     0.420470000000     0.590350000000    -0.0294152  
C693     C      0.622630000000     0.380680000000     0.666700000000     0.0648219  
C694     C      0.651000000000     0.377100000000     0.706870000000    -0.110372   
C695     C      0.595550000000     0.380610000000     0.666240000000    -0.049525   
C696     C      0.660940000000     0.356620000000     0.729040000000     0.32305    
C697     C      0.661890000000     0.319280000000     0.691320000000     0.00804249 
C698     C      0.622630000000     0.416940000000     0.630900000000    -0.0518078  
C699     C      0.905920000000     0.093840000000     0.630190000000    -0.0335736  
C700     C      0.811790000000     0.203170000000     0.667850000000    -0.0290755  
C701     C      0.784960000000     0.176340000000     0.714360000000    -0.00968824 
C702     C      0.785140000000     0.213900000000     0.676790000000    -0.0080668  
C703     C      0.861850000000     0.168950000000     0.669790000000    -0.0544904  
C704     C      0.855810000000     0.127990000000     0.628430000000    -0.0544945  
C705     C      0.836820000000     0.160820000000     0.661470000000     0.0637106  
C706     C      0.811620000000     0.167260000000     0.703790000000    -0.0280944  
C707     C      0.880840000000     0.136130000000     0.636740000000     0.0646573  
C708     C      0.905970000000     0.129830000000     0.594360000000    -0.110414   
C709     C      0.883610000000     0.156660000000     0.657480000000    -0.0490822  
C710     C      0.932640000000     0.120870000000     0.583660000000     0.323279   
C711     C      0.932560000000     0.083170000000     0.621160000000     0.0084594  
C712     C      0.834050000000     0.140280000000     0.640740000000    -0.0514693  
C713     C      0.808860000000     0.382400000000     0.846680000000    -0.0332462  
C714     C      0.909320000000     0.414770000000     0.950800000000    -0.0306606  
C715     C      0.936740000000     0.460120000000     0.922780000000    -0.00727337 
C716     C      0.936650000000     0.422710000000     0.960210000000    -0.00604497 
C717     C      0.857920000000     0.419390000000     0.919330000000    -0.0535541  
C718     C      0.860280000000     0.377840000000     0.878120000000    -0.0540985  
C719     C      0.882150000000     0.409810000000     0.909860000000     0.0641627  
C720     C      0.909400000000     0.450780000000     0.914780000000    -0.0296346  
C721     C      0.836050000000     0.387420000000     0.887600000000     0.065746   
C722     C      0.808860000000     0.346390000000     0.882680000000    -0.111089   
C723     C      0.835120000000     0.408220000000     0.908240000000    -0.0479623  
C724     C      0.781520000000     0.336950000000     0.874750000000     0.324648   
C725     C      0.781530000000     0.374450000000     0.837300000000     0.00921652 
C726     C      0.883080000000     0.389000000000     0.889210000000    -0.050583   
C727     C      0.815540000000     0.171180000000     0.842630000000    -0.0333069  
C728     C      0.901400000000     0.125420000000     0.955240000000    -0.0289576  
C729     C      0.913470000000     0.068420000000     0.937700000000    -0.00819984 
C730     C      0.911790000000     0.104540000000     0.976630000000    -0.00869912 
C731     C      0.845570000000     0.129210000000     0.916160000000    -0.0517574  
C732     C      0.871470000000     0.167270000000     0.881610000000    -0.0495061  
C733     C      0.872640000000     0.129570000000     0.915770000000     0.0635951  
C734     C      0.902800000000     0.090840000000     0.917970000000    -0.0292236  
C735     C      0.844410000000     0.166910000000     0.882000000000     0.0653104  
C736     C      0.814330000000     0.205720000000     0.879930000000    -0.11078    
C737     C      0.831480000000     0.147690000000     0.899430000000    -0.0548046  
C738     C      0.803680000000     0.228250000000     0.860280000000     0.323533   
C739     C      0.805160000000     0.192100000000     0.821280000000     0.00838974 
C740     C      0.885560000000     0.148790000000     0.898340000000    -0.0542789  
C741     C      0.648530000000     0.375370000000     0.839630000000    -0.0302785  
C742     C      0.569710000000     0.422490000000     0.958810000000    -0.029074   
C743     C      0.560990000000     0.480870000000     0.943870000000    -0.0133846  
C744     C      0.560800000000     0.443400000000     0.981090000000    -0.00868176 
C745     C      0.582120000000     0.400190000000     0.900250000000    -0.0534573  
C746     C      0.636140000000     0.397690000000     0.898180000000    -0.054512   
C747     C      0.596900000000     0.417590000000     0.917880000000     0.0640047  
C748     C      0.569840000000     0.458690000000     0.922840000000    -0.0261274  
C749     C      0.621350000000     0.380280000000     0.880550000000     0.0666664  
C750     C      0.648450000000     0.339220000000     0.875610000000    -0.111073   
C751     C      0.594320000000     0.381730000000     0.881780000000    -0.0489889  
C752     C      0.657310000000     0.316950000000     0.854630000000     0.324885   
C753     C      0.657360000000     0.354440000000     0.817330000000     0.00499312 
C754     C      0.623930000000     0.416150000000     0.916650000000    -0.0495722  
C755     C      0.901910000000     0.455120000000     0.626200000000    -0.0334125  
C756     C      0.815900000000     0.342560000000     0.671780000000    -0.0293709  
C757     C      0.803970000000     0.359990000000     0.728860000000    -0.00815756 
C758     C      0.805520000000     0.321140000000     0.692640000000    -0.00806336 
C759     C      0.871800000000     0.381550000000     0.668020000000    -0.0520022  
C760     C      0.845920000000     0.416230000000     0.630060000000    -0.0495025  
C761     C      0.844740000000     0.381970000000     0.667670000000     0.0635163  
C762     C      0.814630000000     0.379750000000     0.706450000000    -0.0293412  
C763     C      0.872990000000     0.415790000000     0.630400000000     0.0651089  
C764     C      0.903040000000     0.417900000000     0.591580000000    -0.110809   
C765     C      0.885900000000     0.398300000000     0.649580000000    -0.0548615  
C766     C      0.913720000000     0.437570000000     0.569080000000     0.323589   
C767     C      0.912320000000     0.476490000000     0.605310000000     0.00854759 
C768     C      0.831820000000     0.399470000000     0.648500000000    -0.0543225  
C769     C      0.946230000000     0.975480000000     0.069010000000     0.415693   
C770     C      0.945980000000     0.568550000000     0.475630000000     0.396953   
C771     C      0.953760000000     0.575150000000     0.075430000000     0.410988   
C772     C      0.957090000000     0.968810000000     0.468930000000     0.396215   
C773     C      0.526050000000     0.979130000000     0.479390000000     0.386389   
C774     C      0.519620000000     0.570900000000     0.070820000000     0.391547   
C775     C      0.522990000000     0.977300000000     0.068730000000     0.38627    
C776     C      0.522670000000     0.568930000000     0.477340000000     0.404226   
C777     C      0.771510000000     0.822030000000     0.228830000000     0.397308   
C778     C      0.771300000000     0.728440000000     0.322230000000     0.41524    
C779     C      0.760890000000     0.828440000000     0.328700000000     0.413895   
C780     C      0.763910000000     0.722130000000     0.222460000000     0.397078   
C781     C      0.698210000000     0.726570000000     0.226590000000     0.410438   
C782     C      0.691920000000     0.818500000000     0.318740000000     0.407375   
C783     C      0.694940000000     0.820210000000     0.228770000000     0.40578    
C784     C      0.694580000000     0.728900000000     0.320200000000     0.38889    
C785     C      0.649040000000     0.707860000000     0.171940000000    -0.0348502  
C786     C      0.569100000000     0.589740000000     0.125110000000    -0.0287296  
C787     C      0.543770000000     0.614750000000     0.076500000000    -0.00991143 
C788     C      0.543940000000     0.576760000000     0.114540000000    -0.00745216 
C789     C      0.583000000000     0.654400000000     0.154190000000    -0.0512778  
C790     C      0.635030000000     0.643280000000     0.142740000000    -0.0488694  
C791     C      0.589470000000     0.634370000000     0.133960000000     0.0648198  
C792     C      0.568950000000     0.625450000000     0.089330000000    -0.0273517  
C793     C      0.628560000000     0.663300000000     0.162970000000     0.0655697  
C794     C      0.649040000000     0.672090000000     0.207670000000    -0.112676   
C795     C      0.602340000000     0.668810000000     0.168640000000    -0.0543625  
C796     C      0.674290000000     0.682600000000     0.220520000000     0.324873   
C797     C      0.674200000000     0.720750000000     0.182640000000     0.00887204 
C798     C      0.615700000000     0.628870000000     0.128290000000    -0.0547861  
C799     C      0.565690000000     0.627030000000     0.456230000000    -0.0331758  
C800     C      0.651150000000     0.671200000000     0.341180000000    -0.0280746  
C801     C      0.660390000000     0.729440000000     0.356420000000    -0.0144408  
C802     C      0.661240000000     0.691750000000     0.319150000000    -0.00998932 
C803     C      0.635530000000     0.649480000000     0.399050000000    -0.0544712  
C804     C      0.581430000000     0.648850000000     0.398460000000    -0.0538812  
C805     C      0.622020000000     0.667270000000     0.380630000000     0.0647217  
C806     C      0.650410000000     0.707390000000     0.376970000000    -0.0252903  
C807     C      0.594940000000     0.631060000000     0.416880000000     0.0646274  
C808     C      0.566630000000     0.590860000000     0.420470000000    -0.11074    
C809     C      0.622020000000     0.631560000000     0.416980000000    -0.048867   
C810     C      0.556710000000     0.568700000000     0.440970000000     0.323066   
C811     C      0.555630000000     0.606470000000     0.478260000000     0.00799125 
C812     C      0.594930000000     0.666770000000     0.380530000000    -0.0512808  
C813     C      0.651830000000     0.841290000000     0.170740000000    -0.033142   
C814     C      0.566450000000     0.956340000000     0.126450000000    -0.0294915  
C815     C      0.557070000000     0.940960000000     0.068260000000    -0.00848025 
C816     C      0.556350000000     0.978340000000     0.105870000000    -0.00874384 
C817     C      0.582040000000     0.898510000000     0.148290000000    -0.0541222  
C818     C      0.636140000000     0.899050000000     0.148850000000    -0.0547773  
C819     C      0.595550000000     0.916870000000     0.130430000000     0.0630632  
C820     C      0.567090000000     0.920470000000     0.090350000000    -0.0293838  
C821     C      0.622630000000     0.880680000000     0.166700000000     0.0648488  
C822     C      0.651000000000     0.877100000000     0.206870000000    -0.110373   
C823     C      0.595550000000     0.880610000000     0.166240000000    -0.0495808  
C824     C      0.660940000000     0.856620000000     0.229040000000     0.323053   
C825     C      0.661890000000     0.819280000000     0.191320000000     0.00808675 
C826     C      0.622630000000     0.916940000000     0.130900000000    -0.0517779  
C827     C      0.905920000000     0.593840000000     0.130190000000    -0.0335791  
C828     C      0.811790000000     0.703160000000     0.167850000000    -0.0289636  
C829     C      0.784960000000     0.676340000000     0.214360000000    -0.00964478 
C830     C      0.785140000000     0.713900000000     0.176790000000    -0.00811562 
C831     C      0.861850000000     0.668950000000     0.169790000000    -0.0544786  
C832     C      0.855810000000     0.627990000000     0.128430000000    -0.0544892  
C833     C      0.836820000000     0.660810000000     0.161470000000     0.0637047  
C834     C      0.811620000000     0.667260000000     0.203790000000    -0.028112   
C835     C      0.880840000000     0.636130000000     0.136740000000     0.0646574  
C836     C      0.905970000000     0.629830000000     0.094360000000    -0.110413   
C837     C      0.883610000000     0.656660000000     0.157480000000    -0.0490882  
C838     C      0.932640000000     0.620870000000     0.083660000000     0.323266   
C839     C      0.932560000000     0.583170000000     0.121150000000     0.00857151 
C840     C      0.834050000000     0.640280000000     0.140740000000    -0.0514877  
C841     C      0.808860000000     0.882400000000     0.346680000000    -0.033245   
C842     C      0.909320000000     0.914770000000     0.450800000000    -0.0306576  
C843     C      0.936740000000     0.960120000000     0.422770000000    -0.00740594 
C844     C      0.936650000000     0.922710000000     0.460210000000    -0.00604655 
C845     C      0.857920000000     0.919390000000     0.419330000000    -0.0535271  
C846     C      0.860280000000     0.877840000000     0.378120000000    -0.054086   
C847     C      0.882150000000     0.909800000000     0.409850000000     0.064153   
C848     C      0.909400000000     0.950780000000     0.414780000000    -0.0295647  
C849     C      0.836050000000     0.887420000000     0.387600000000     0.0657451  
C850     C      0.808860000000     0.846390000000     0.382680000000    -0.111096   
C851     C      0.835120000000     0.908220000000     0.408240000000    -0.0479741  
C852     C      0.781520000000     0.836950000000     0.374750000000     0.324676   
C853     C      0.781530000000     0.874450000000     0.337300000000     0.0092169  
C854     C      0.883080000000     0.889000000000     0.389210000000    -0.0506182  
C855     C      0.815540000000     0.671180000000     0.342630000000    -0.0333256  
C856     C      0.901400000000     0.625420000000     0.455240000000    -0.0289589  
C857     C      0.913470000000     0.568420000000     0.437700000000    -0.00823355 
C858     C      0.911790000000     0.604540000000     0.476630000000    -0.00869512 
C859     C      0.845570000000     0.629210000000     0.416160000000    -0.0517628  
C860     C      0.871470000000     0.667270000000     0.381610000000    -0.0494514  
C861     C      0.872640000000     0.629570000000     0.415770000000     0.0636036  
C862     C      0.902800000000     0.590840000000     0.417970000000    -0.0292285  
C863     C      0.844410000000     0.666910000000     0.382010000000     0.0652808  
C864     C      0.814330000000     0.705720000000     0.379930000000    -0.110763   
C865     C      0.831480000000     0.647690000000     0.399430000000    -0.0548074  
C866     C      0.803680000000     0.728250000000     0.360280000000     0.323461   
C867     C      0.805160000000     0.692100000000     0.321280000000     0.00843016 
C868     C      0.885560000000     0.648790000000     0.398340000000    -0.0543043  
C869     C      0.648530000000     0.875370000000     0.339630000000    -0.0302792  
C870     C      0.569710000000     0.922490000000     0.458810000000    -0.0290654  
C871     C      0.560990000000     0.980870000000     0.443870000000    -0.0133538  
C872     C      0.560800000000     0.943400000000     0.481090000000    -0.00873633 
C873     C      0.582120000000     0.900190000000     0.400250000000    -0.0534643  
C874     C      0.636140000000     0.897690000000     0.398180000000    -0.0545209  
C875     C      0.596900000000     0.917590000000     0.417880000000     0.0639955  
C876     C      0.569840000000     0.958690000000     0.422840000000    -0.0261424  
C877     C      0.621350000000     0.880280000000     0.380550000000     0.0666496  
C878     C      0.648450000000     0.839220000000     0.375610000000    -0.111072   
C879     C      0.594320000000     0.881730000000     0.381790000000    -0.0489409  
C880     C      0.657310000000     0.816950000000     0.354630000000     0.324884   
C881     C      0.657360000000     0.854440000000     0.317330000000     0.0049934  
C882     C      0.623930000000     0.916150000000     0.416650000000    -0.0495364  
C883     C      0.901910000000     0.955120000000     0.126200000000    -0.0333992  
C884     C      0.815900000000     0.842560000000     0.171780000000    -0.0293678  
C885     C      0.803970000000     0.859990000000     0.228860000000    -0.00812017 
C886     C      0.805520000000     0.821140000000     0.192640000000    -0.00806404 
C887     C      0.871800000000     0.881550000000     0.168020000000    -0.0520026  
C888     C      0.845920000000     0.916230000000     0.130060000000    -0.0495675  
C889     C      0.844740000000     0.881970000000     0.167680000000     0.0635184  
C890     C      0.814630000000     0.879750000000     0.206450000000    -0.0293564  
C891     C      0.872990000000     0.915790000000     0.130400000000     0.0651575  
C892     C      0.903040000000     0.917900000000     0.091580000000    -0.110829   
C893     C      0.885900000000     0.898300000000     0.149570000000    -0.0548951  
C894     C      0.913720000000     0.937570000000     0.069080000000     0.323642   
C895     C      0.912320000000     0.976490000000     0.105310000000     0.00850506 
C896     C      0.831820000000     0.899470000000     0.148500000000    -0.0542834  
C897     C      0.946230000000     0.975480000000     0.569010000000     0.415628   
C898     C      0.945980000000     0.568550000000     0.975630000000     0.396949   
C899     C      0.953760000000     0.575150000000     0.575440000000     0.410944   
C900     C      0.957090000000     0.968810000000     0.968930000000     0.396215   
C901     C      0.526050000000     0.979130000000     0.979390000000     0.386559   
C902     C      0.519620000000     0.570900000000     0.570820000000     0.391555   
C903     C      0.522990000000     0.977300000000     0.568730000000     0.38628    
C904     C      0.522670000000     0.568930000000     0.977340000000     0.404219   
C905     C      0.771510000000     0.822030000000     0.728830000000     0.397308   
C906     C      0.771300000000     0.728440000000     0.822230000000     0.415197   
C907     C      0.760890000000     0.828440000000     0.828700000000     0.413894   
C908     C      0.763910000000     0.722130000000     0.722460000000     0.397079   
C909     C      0.698210000000     0.726570000000     0.726590000000     0.410649   
C910     C      0.691920000000     0.818500000000     0.818740000000     0.407374   
C911     C      0.694940000000     0.820210000000     0.728770000000     0.405779   
C912     C      0.694580000000     0.728900000000     0.820200000000     0.388892   
C913     C      0.649040000000     0.707860000000     0.671940000000    -0.0348527  
C914     C      0.569100000000     0.589740000000     0.625110000000    -0.0287346  
C915     C      0.543770000000     0.614750000000     0.576510000000    -0.00981615 
C916     C      0.543940000000     0.576760000000     0.614540000000    -0.00744694 
C917     C      0.583000000000     0.654400000000     0.654190000000    -0.0512944  
C918     C      0.635030000000     0.643280000000     0.642740000000    -0.0488624  
C919     C      0.589470000000     0.634370000000     0.633960000000     0.0648233  
C920     C      0.568950000000     0.625450000000     0.589330000000    -0.0274282  
C921     C      0.628560000000     0.663300000000     0.662970000000     0.0655673  
C922     C      0.649040000000     0.672090000000     0.707670000000    -0.112681   
C923     C      0.602340000000     0.668810000000     0.668640000000    -0.0543506  
C924     C      0.674290000000     0.682600000000     0.720520000000     0.324885   
C925     C      0.674200000000     0.720750000000     0.682640000000     0.00887868 
C926     C      0.615700000000     0.628870000000     0.628290000000    -0.0547857  
C927     C      0.565690000000     0.627030000000     0.956230000000    -0.0331926  
C928     C      0.651150000000     0.671200000000     0.841180000000    -0.0280316  
C929     C      0.660390000000     0.729440000000     0.856410000000    -0.0143709  
C930     C      0.661240000000     0.691750000000     0.819140000000    -0.0101009  
C931     C      0.635530000000     0.649480000000     0.899050000000    -0.0544678  
C932     C      0.581430000000     0.648850000000     0.898460000000    -0.05388    
C933     C      0.622020000000     0.667270000000     0.880630000000     0.0647233  
C934     C      0.650410000000     0.707390000000     0.876970000000    -0.0252945  
C935     C      0.594940000000     0.631060000000     0.916880000000     0.0646319  
C936     C      0.566630000000     0.590860000000     0.920470000000    -0.11074    
C937     C      0.622020000000     0.631560000000     0.916980000000    -0.0488639  
C938     C      0.556710000000     0.568700000000     0.940970000000     0.323067   
C939     C      0.555630000000     0.606470000000     0.978260000000     0.00799134 
C940     C      0.594930000000     0.666770000000     0.880530000000    -0.0512788  
C941     C      0.651830000000     0.841290000000     0.670740000000    -0.0331439  
C942     C      0.566450000000     0.956340000000     0.626450000000    -0.0294251  
C943     C      0.557070000000     0.940960000000     0.568260000000    -0.00847547 
C944     C      0.556350000000     0.978340000000     0.605870000000    -0.00876579 
C945     C      0.582040000000     0.898510000000     0.648290000000    -0.0541619  
C946     C      0.636140000000     0.899050000000     0.648850000000    -0.0547528  
C947     C      0.595550000000     0.916870000000     0.630430000000     0.0631197  
C948     C      0.567090000000     0.920470000000     0.590350000000    -0.0294144  
C949     C      0.622630000000     0.880680000000     0.666700000000     0.0648226  
C950     C      0.651000000000     0.877100000000     0.706870000000    -0.110375   
C951     C      0.595550000000     0.880610000000     0.666240000000    -0.0495225  
C952     C      0.660940000000     0.856620000000     0.729040000000     0.323053   
C953     C      0.661890000000     0.819280000000     0.691320000000     0.0080873  
C954     C      0.622630000000     0.916940000000     0.630900000000    -0.051805   
C955     C      0.905920000000     0.593840000000     0.630190000000    -0.0335737  
C956     C      0.811790000000     0.703160000000     0.667850000000    -0.0289638  
C957     C      0.784960000000     0.676340000000     0.714360000000    -0.00964505 
C958     C      0.785140000000     0.713900000000     0.676790000000    -0.00811616 
C959     C      0.861850000000     0.668950000000     0.669790000000    -0.0544773  
C960     C      0.855810000000     0.627990000000     0.628430000000    -0.054486   
C961     C      0.836820000000     0.660810000000     0.661470000000     0.0637069  
C962     C      0.811620000000     0.667260000000     0.703790000000    -0.0281121  
C963     C      0.880840000000     0.636130000000     0.636740000000     0.0646589  
C964     C      0.905970000000     0.629830000000     0.594360000000    -0.110414   
C965     C      0.883610000000     0.656660000000     0.657480000000    -0.0490862  
C966     C      0.932640000000     0.620870000000     0.583660000000     0.32328    
C967     C      0.932560000000     0.583170000000     0.621160000000     0.00845884 
C968     C      0.834050000000     0.640280000000     0.640740000000    -0.0514834  
C969     C      0.808860000000     0.882400000000     0.846680000000    -0.0332446  
C970     C      0.909320000000     0.914770000000     0.950800000000    -0.0306637  
C971     C      0.936740000000     0.960120000000     0.922780000000    -0.00728064 
C972     C      0.936650000000     0.922710000000     0.960210000000    -0.00604293 
C973     C      0.857920000000     0.919390000000     0.919330000000    -0.0535387  
C974     C      0.860280000000     0.877840000000     0.878120000000    -0.05409    
C975     C      0.882150000000     0.909800000000     0.909860000000     0.0641634  
C976     C      0.909400000000     0.950780000000     0.914780000000    -0.0296168  
C977     C      0.836050000000     0.887420000000     0.887600000000     0.0657472  
C978     C      0.808860000000     0.846390000000     0.882680000000    -0.111093   
C979     C      0.835120000000     0.908220000000     0.908240000000    -0.0479631  
C980     C      0.781520000000     0.836950000000     0.874750000000     0.324663   
C981     C      0.781530000000     0.874450000000     0.837300000000     0.0092161  
C982     C      0.883080000000     0.889000000000     0.889210000000    -0.0506003  
C983     C      0.815540000000     0.671180000000     0.842630000000    -0.0333081  
C984     C      0.901400000000     0.625420000000     0.955240000000    -0.028957   
C985     C      0.913470000000     0.568420000000     0.937700000000    -0.00819751 
C986     C      0.911790000000     0.604540000000     0.976630000000    -0.00869935 
C987     C      0.845570000000     0.629210000000     0.916160000000    -0.0517551  
C988     C      0.871470000000     0.667270000000     0.881610000000    -0.0495043  
C989     C      0.872640000000     0.629570000000     0.915770000000     0.0635988  
C990     C      0.902800000000     0.590840000000     0.917970000000    -0.0292423  
C991     C      0.844410000000     0.666910000000     0.882000000000     0.065311   
C992     C      0.814330000000     0.705720000000     0.879930000000    -0.110781   
C993     C      0.831480000000     0.647690000000     0.899430000000    -0.0548016  
C994     C      0.803680000000     0.728250000000     0.860280000000     0.323533   
C995     C      0.805160000000     0.692100000000     0.821280000000     0.00839024 
C996     C      0.885560000000     0.648790000000     0.898340000000    -0.0542782  
C997     C      0.648530000000     0.875370000000     0.839630000000    -0.0302796  
C998     C      0.569710000000     0.922490000000     0.958810000000    -0.0290914  
C999     C      0.560990000000     0.980870000000     0.943870000000    -0.0133315  
C1000    C      0.560800000000     0.943400000000     0.981090000000    -0.00871966 
C1001    C      0.582120000000     0.900190000000     0.900250000000    -0.0534556  
C1002    C      0.636140000000     0.897690000000     0.898180000000    -0.0545114  
C1003    C      0.596900000000     0.917590000000     0.917880000000     0.0640083  
C1004    C      0.569840000000     0.958690000000     0.922840000000    -0.0261468  
C1005    C      0.621350000000     0.880280000000     0.880550000000     0.0666706  
C1006    C      0.648450000000     0.839220000000     0.875610000000    -0.111073   
C1007    C      0.594320000000     0.881730000000     0.881780000000    -0.048988   
C1008    C      0.657310000000     0.816950000000     0.854630000000     0.324885   
C1009    C      0.657360000000     0.854440000000     0.817330000000     0.0049934  
C1010    C      0.623930000000     0.916150000000     0.916650000000    -0.0495699  
C1011    C      0.901910000000     0.955120000000     0.626200000000    -0.0334146  
C1012    C      0.815900000000     0.842560000000     0.671780000000    -0.0293728  
C1013    C      0.803970000000     0.859990000000     0.728860000000    -0.0081202  
C1014    C      0.805520000000     0.821140000000     0.692640000000    -0.00806242 
C1015    C      0.871800000000     0.881550000000     0.668020000000    -0.0519914  
C1016    C      0.845920000000     0.916230000000     0.630060000000    -0.0495489  
C1017    C      0.844740000000     0.881970000000     0.667670000000     0.0635079  
C1018    C      0.814630000000     0.879750000000     0.706450000000    -0.0293573  
C1019    C      0.872990000000     0.915790000000     0.630400000000     0.0651334  
C1020    C      0.903040000000     0.917900000000     0.591580000000    -0.110808   
C1021    C      0.885900000000     0.898300000000     0.649580000000    -0.0548712  
C1022    C      0.913720000000     0.937570000000     0.569080000000     0.323588   
C1023    C      0.912320000000     0.976490000000     0.605310000000     0.00855893 
C1024    C      0.831820000000     0.899470000000     0.648500000000    -0.0542966  
Co1      Co     0.484380000000     0.481250000000     0.522560000000     0.839322   
Co2      Co     0.983300000000     0.063800000000     0.022930000000     0.839171   
Co3      Co     0.483490000000     0.522810000000     0.063920000000     0.837497   
Co4      Co     0.984440000000     0.522390000000     0.481430000000     0.836245   
Co5      Co     0.234340000000     0.274620000000     0.233790000000     0.838806   
Co6      Co     0.233280000000     0.274990000000     0.316340000000     0.84345    
Co7      Co     0.233290000000     0.316140000000     0.275210000000     0.839957   
Co8      Co     0.234180000000     0.233640000000     0.274790000000     0.841378   
Co9      Co     0.484380000000     0.481250000000     0.022560000000     0.839188   
Co10     Co     0.983300000000     0.063800000000     0.522930000000     0.839379   
Co11     Co     0.483490000000     0.522810000000     0.563920000000     0.837487   
Co12     Co     0.984440000000     0.522390000000     0.981430000000     0.836412   
Co13     Co     0.234340000000     0.274620000000     0.733790000000     0.83882    
Co14     Co     0.233280000000     0.274990000000     0.816340000000     0.84345    
Co15     Co     0.233290000000     0.316140000000     0.775210000000     0.839954   
Co16     Co     0.234180000000     0.233640000000     0.774790000000     0.841348   
Co17     Co     0.484380000000     0.981250000000     0.522560000000     0.839479   
Co18     Co     0.983300000000     0.563800000000     0.022930000000     0.839152   
Co19     Co     0.483490000000     0.022810000000     0.063920000000     0.837288   
Co20     Co     0.984440000000     0.022390000000     0.481430000000     0.83613    
Co21     Co     0.234340000000     0.774620000000     0.233790000000     0.838804   
Co22     Co     0.233280000000     0.774990000000     0.316340000000     0.843432   
Co23     Co     0.233290000000     0.816140000000     0.275210000000     0.83997    
Co24     Co     0.234180000000     0.733640000000     0.274790000000     0.841379   
Co25     Co     0.484380000000     0.981250000000     0.022560000000     0.839346   
Co26     Co     0.983300000000     0.563800000000     0.522930000000     0.839359   
Co27     Co     0.483490000000     0.022810000000     0.563920000000     0.837279   
Co28     Co     0.984440000000     0.022390000000     0.981430000000     0.836298   
Co29     Co     0.234340000000     0.774620000000     0.733790000000     0.838818   
Co30     Co     0.233280000000     0.774990000000     0.816340000000     0.843431   
Co31     Co     0.233290000000     0.816140000000     0.775210000000     0.839967   
Co32     Co     0.234180000000     0.733640000000     0.774790000000     0.84135    
Co33     Co     0.984380000000     0.481250000000     0.522560000000     0.838438   
Co34     Co     0.483300000000     0.063800000000     0.022930000000     0.840066   
Co35     Co     0.983490000000     0.522810000000     0.063920000000     0.8366     
Co36     Co     0.484440000000     0.522390000000     0.481430000000     0.837132   
Co37     Co     0.734340000000     0.274620000000     0.233790000000     0.838814   
Co38     Co     0.733280000000     0.274990000000     0.316340000000     0.843462   
Co39     Co     0.733290000000     0.316140000000     0.275210000000     0.839961   
Co40     Co     0.734180000000     0.233640000000     0.274790000000     0.841311   
Co41     Co     0.984380000000     0.481250000000     0.022560000000     0.838304   
Co42     Co     0.483300000000     0.063800000000     0.522930000000     0.840275   
Co43     Co     0.983490000000     0.522810000000     0.563920000000     0.836589   
Co44     Co     0.484440000000     0.522390000000     0.981430000000     0.837296   
Co45     Co     0.734340000000     0.274620000000     0.733790000000     0.838828   
Co46     Co     0.733280000000     0.274990000000     0.816340000000     0.843462   
Co47     Co     0.733290000000     0.316140000000     0.775210000000     0.839958   
Co48     Co     0.734180000000     0.233640000000     0.774790000000     0.841282   
Co49     Co     0.984380000000     0.981250000000     0.522560000000     0.838598   
Co50     Co     0.483300000000     0.563800000000     0.022930000000     0.840048   
Co51     Co     0.983490000000     0.022810000000     0.063920000000     0.836392   
Co52     Co     0.484440000000     0.022390000000     0.481430000000     0.837017   
Co53     Co     0.734340000000     0.774620000000     0.233790000000     0.838812   
Co54     Co     0.733280000000     0.774990000000     0.316340000000     0.843443   
Co55     Co     0.733290000000     0.816140000000     0.275210000000     0.839974   
Co56     Co     0.734180000000     0.733640000000     0.274790000000     0.841312   
Co57     Co     0.984380000000     0.981250000000     0.022560000000     0.838465   
Co58     Co     0.483300000000     0.563800000000     0.522930000000     0.840256   
Co59     Co     0.983490000000     0.022810000000     0.563920000000     0.836382   
Co60     Co     0.484440000000     0.022390000000     0.981430000000     0.837182   
Co61     Co     0.734340000000     0.774620000000     0.733790000000     0.838826   
Co62     Co     0.733280000000     0.774990000000     0.816340000000     0.843443   
Co63     Co     0.733290000000     0.816140000000     0.775210000000     0.839971   
Co64     Co     0.734180000000     0.733640000000     0.774790000000     0.841283   
F1       F      0.194180000000     0.164720000000     0.212950000000    -0.433896   
F2       F      0.077440000000     0.053190000000     0.450790000000    -0.443102   
F3       F      0.140230000000     0.346870000000     0.244610000000    -0.437369   
F4       F      0.451200000000     0.138750000000     0.094460000000    -0.434901   
F5       F      0.263950000000     0.349050000000     0.392980000000    -0.433719   
F6       F      0.323700000000     0.245610000000     0.351960000000    -0.435866   
F7       F      0.135960000000     0.302190000000     0.345250000000    -0.437303   
F8       F      0.393700000000     0.445990000000     0.051760000000    -0.435939   
F9       F      0.194180000000     0.164720000000     0.712950000000    -0.433894   
F10      F      0.077440000000     0.053190000000     0.950790000000    -0.443089   
F11      F      0.140230000000     0.346870000000     0.744610000000    -0.43737    
F12      F      0.451200000000     0.138750000000     0.594460000000    -0.434892   
F13      F      0.263950000000     0.349050000000     0.892980000000    -0.433708   
F14      F      0.323700000000     0.245610000000     0.851960000000    -0.435878   
F15      F      0.135960000000     0.302190000000     0.845250000000    -0.437301   
F16      F      0.393700000000     0.445990000000     0.551760000000    -0.435899   
F17      F      0.194180000000     0.664720000000     0.212950000000    -0.43397    
F18      F      0.077440000000     0.553200000000     0.450790000000    -0.443136   
F19      F      0.140230000000     0.846870000000     0.244610000000    -0.437367   
F20      F      0.451200000000     0.638750000000     0.094460000000    -0.434901   
F21      F      0.263950000000     0.849050000000     0.392980000000    -0.43372    
F22      F      0.323700000000     0.745610000000     0.351960000000    -0.435866   
F23      F      0.135960000000     0.802190000000     0.345250000000    -0.437303   
F24      F      0.393700000000     0.945990000000     0.051760000000    -0.435924   
F25      F      0.194180000000     0.664720000000     0.712950000000    -0.433967   
F26      F      0.077440000000     0.553200000000     0.950790000000    -0.443123   
F27      F      0.140230000000     0.846870000000     0.744610000000    -0.437368   
F28      F      0.451200000000     0.638750000000     0.594460000000    -0.434893   
F29      F      0.263950000000     0.849050000000     0.892980000000    -0.43371    
F30      F      0.323700000000     0.745610000000     0.851960000000    -0.435878   
F31      F      0.135960000000     0.802190000000     0.845250000000    -0.437302   
F32      F      0.393700000000     0.945990000000     0.551760000000    -0.435884   
F33      F      0.694180000000     0.164720000000     0.212950000000    -0.433893   
F34      F      0.577440000000     0.053190000000     0.450790000000    -0.443112   
F35      F      0.640230000000     0.346870000000     0.244610000000    -0.437395   
F36      F      0.951200000000     0.138750000000     0.094460000000    -0.435072   
F37      F      0.763950000000     0.349050000000     0.392980000000    -0.433711   
F38      F      0.823700000000     0.245610000000     0.351960000000    -0.435887   
F39      F      0.635960000000     0.302190000000     0.345250000000    -0.437332   
F40      F      0.893700000000     0.445990000000     0.051760000000    -0.435928   
F41      F      0.694180000000     0.164720000000     0.712950000000    -0.433891   
F42      F      0.577440000000     0.053190000000     0.950790000000    -0.443098   
F43      F      0.640230000000     0.346870000000     0.744610000000    -0.437396   
F44      F      0.951200000000     0.138750000000     0.594460000000    -0.435064   
F45      F      0.763950000000     0.349050000000     0.892980000000    -0.4337     
F46      F      0.823700000000     0.245610000000     0.851960000000    -0.435899   
F47      F      0.635960000000     0.302190000000     0.845250000000    -0.437331   
F48      F      0.893700000000     0.445990000000     0.551760000000    -0.435888   
F49      F      0.694180000000     0.664720000000     0.212950000000    -0.433967   
F50      F      0.577440000000     0.553200000000     0.450790000000    -0.443146   
F51      F      0.640230000000     0.846870000000     0.244610000000    -0.437393   
F52      F      0.951200000000     0.638750000000     0.094460000000    -0.435073   
F53      F      0.763950000000     0.849050000000     0.392980000000    -0.433713   
F54      F      0.823700000000     0.745610000000     0.351960000000    -0.435888   
F55      F      0.635960000000     0.802190000000     0.345250000000    -0.437333   
F56      F      0.893700000000     0.945990000000     0.051760000000    -0.435912   
F57      F      0.694180000000     0.664720000000     0.712950000000    -0.433964   
F58      F      0.577440000000     0.553200000000     0.950790000000    -0.443133   
F59      F      0.640230000000     0.846870000000     0.744610000000    -0.437394   
F60      F      0.951200000000     0.638750000000     0.594460000000    -0.435064   
F61      F      0.763950000000     0.849050000000     0.892980000000    -0.433702   
F62      F      0.823700000000     0.745610000000     0.851960000000    -0.435899   
F63      F      0.635960000000     0.802190000000     0.845250000000    -0.437332   
F64      F      0.893700000000     0.945990000000     0.551760000000    -0.435872   
H1       H      0.121170000000     0.113480000000     0.112750000000     0.0454171  
H2       H      0.147640000000     0.211920000000     0.149030000000     0.0407217  
H3       H      0.147390000000     0.149200000000     0.211710000000     0.0844874  
H4       H      0.027800000000     0.129100000000     0.082600000000     0.0616166  
H5       H      0.190180000000     0.214700000000     0.168280000000     0.0557157  
H6       H      0.070600000000     0.085720000000     0.148010000000     0.0388984  
H7       H      0.070350000000     0.148350000000     0.085270000000     0.0404978  
H8       H      0.045830000000     0.053570000000     0.115510000000     0.0469129  
H9       H      0.172300000000     0.181680000000     0.243700000000    -0.00169699 
H10      H      0.155140000000     0.138850000000     0.138200000000     0.0576934  
H11      H      0.172380000000     0.243940000000     0.181690000000     0.044028   
H12      H      0.062900000000     0.158820000000     0.158740000000     0.0528765  
H13      H      0.132320000000     0.218290000000     0.182330000000     0.0406108  
H14      H      0.045540000000     0.115700000000     0.053300000000     0.0512052  
H15      H      0.085800000000     0.079350000000     0.114660000000     0.039566   
H16      H      0.085640000000     0.115060000000     0.078870000000     0.039989   
H17      H      0.096870000000     0.184190000000     0.184190000000     0.0455876  
H18      H      0.132410000000     0.182620000000     0.218110000000     0.0562042  
H19      H      0.028000000000     0.082770000000     0.128970000000     0.0506793  
H20      H      0.084290000000     0.180340000000     0.366490000000     0.0520125  
H21      H      0.077370000000     0.143360000000     0.467040000000     0.0409574  
H22      H      0.078960000000     0.080340000000     0.404510000000     0.0813803  
H23      H      0.143640000000     0.241640000000     0.348410000000     0.0744753  
H24      H      0.072210000000     0.099230000000     0.491200000000     0.0580298  
H25      H      0.139380000000     0.154950000000     0.330390000000     0.040332   
H26      H      0.138100000000     0.218050000000     0.392840000000     0.0440584  
H27      H      0.174650000000     0.180340000000     0.304970000000     0.0556463  
H28      H      0.043750000000     0.054310000000     0.429240000000    -0.00313721 
H29      H      0.060510000000     0.148850000000     0.397930000000     0.0444288  
H30      H      0.042080000000     0.117820000000     0.492320000000     0.0463653  
H31      H      0.156450000000     0.149460000000     0.399560000000     0.0455293  
H32      H      0.048950000000     0.137490000000     0.445930000000     0.0406987  
H33      H      0.173150000000     0.244150000000     0.368000000000     0.0635449  
H34      H      0.167880000000     0.160660000000     0.351420000000     0.0423056  
H35      H      0.167150000000     0.197700000000     0.387980000000     0.0415766  
H36      H      0.132660000000     0.117980000000     0.431010000000     0.0570124  
H37      H      0.049860000000     0.100520000000     0.409480000000     0.0553347  
H38      H      0.144640000000     0.199160000000     0.306340000000     0.0480705  
H39      H      0.133270000000     0.430930000000     0.117280000000     0.0484608  
H40      H      0.140110000000     0.330480000000     0.154460000000     0.0402761  
H41      H      0.138720000000     0.393100000000     0.217390000000     0.0819523  
H42      H      0.073780000000     0.448890000000     0.055930000000     0.0415053  
H43      H      0.145300000000     0.306400000000     0.198630000000     0.0598507  
H44      H      0.078250000000     0.467150000000     0.142660000000     0.0381856  
H45      H      0.079370000000     0.404560000000     0.079700000000     0.037837   
H46      H      0.042980000000     0.492550000000     0.117270000000     0.0482043  
H47      H      0.173950000000     0.368360000000     0.243380000000    -0.0020358  
H48      H      0.157060000000     0.399550000000     0.148820000000     0.043753   
H49      H      0.175390000000     0.305170000000     0.179960000000     0.0447115  
H50      H      0.061120000000     0.398020000000     0.148350000000     0.0449389  
H51      H      0.168570000000     0.351540000000     0.160240000000     0.0395673  
H52      H      0.044230000000     0.429350000000     0.053660000000     0.0484279  
H53      H      0.049730000000     0.446150000000     0.137040000000     0.0410447  
H54      H      0.050370000000     0.409490000000     0.100110000000     0.0410251  
H55      H      0.084910000000     0.366630000000     0.179860000000     0.057974   
H56      H      0.167770000000     0.388060000000     0.197160000000     0.0551957  
H57      H      0.072960000000     0.491110000000     0.098390000000     0.0419411  
H58      H      0.314930000000     0.133800000000     0.134130000000     0.0503576  
H59      H      0.403600000000     0.089770000000     0.153010000000     0.0400797  
H60      H      0.403540000000     0.152640000000     0.090360000000     0.0832833  
H61      H      0.270140000000     0.162070000000     0.205390000000     0.0597804  
H62      H      0.447380000000     0.092000000000     0.135530000000     0.0587763  
H63      H      0.314160000000     0.207170000000     0.145030000000     0.0392451  
H64      H      0.313880000000     0.144440000000     0.207820000000     0.039707   
H65      H      0.284820000000     0.237030000000     0.174230000000     0.0487899  
H66      H      0.432710000000     0.123210000000     0.060490000000    -5.83652e-05
H67      H      0.353100000000     0.112180000000     0.112460000000     0.0443585  
H68      H      0.432890000000     0.060020000000     0.123600000000     0.0442835  
H69      H      0.364550000000     0.184760000000     0.185750000000     0.0456148  
H70      H      0.390690000000     0.081890000000     0.118830000000     0.0399367  
H71      H      0.284520000000     0.173800000000     0.237500000000     0.0541277  
H72      H      0.327010000000     0.215130000000     0.179220000000     0.0411068  
H73      H      0.326830000000     0.178570000000     0.215820000000     0.0410647  
H74      H      0.402720000000     0.163150000000     0.164080000000     0.0575959  
H75      H      0.390770000000     0.118480000000     0.082350000000     0.0553381  
H76      H      0.270340000000     0.205000000000     0.162430000000     0.048909   
H77      H      0.401560000000     0.381430000000     0.381720000000     0.0498534  
H78      H      0.311740000000     0.405140000000     0.342640000000     0.040231   
H79      H      0.311870000000     0.342310000000     0.405390000000     0.0885248  
H80      H      0.450710000000     0.449980000000     0.408280000000     0.0415788  
H81      H      0.267550000000     0.389020000000     0.347330000000     0.0605735  
H82      H      0.406410000000     0.392040000000     0.454840000000     0.0442579  
H83      H      0.406540000000     0.454810000000     0.392040000000     0.037569   
H84      H      0.438030000000     0.419610000000     0.483230000000     0.0583106  
H85      H      0.280460000000     0.313870000000     0.377510000000     0.0113599  
H86      H      0.361560000000     0.361790000000     0.362190000000     0.0481717  
H87      H      0.280150000000     0.377490000000     0.314270000000     0.0453619  
H88      H      0.356640000000     0.435440000000     0.435260000000     0.0497025  
H89      H      0.323170000000     0.370540000000     0.333930000000     0.0420896  
H90      H      0.438180000000     0.483130000000     0.419670000000     0.0485009  
H91      H      0.395000000000     0.426650000000     0.463550000000     0.0544144  
H92      H      0.395080000000     0.463570000000     0.426620000000     0.0436118  
H93      H      0.316630000000     0.415790000000     0.415740000000     0.0592555  
H94      H      0.323170000000     0.333670000000     0.370760000000     0.0682019  
H95      H      0.450620000000     0.408170000000     0.450120000000     0.0424663  
H96      H      0.406470000000     0.149550000000     0.397740000000     0.0450826  
H97      H      0.328020000000     0.155830000000     0.331440000000     0.040125   
H98      H      0.325920000000     0.216100000000     0.396600000000     0.0844581  
H99      H      0.397260000000     0.054730000000     0.444530000000     0.0438948  
H100     H      0.321690000000     0.200610000000     0.309050000000     0.058756   
H101     H      0.388840000000     0.140720000000     0.466390000000     0.0398797  
H102     H      0.391210000000     0.080300000000     0.401390000000     0.0374596  
H103     H      0.424430000000     0.116030000000     0.491550000000     0.0524133  
H104     H      0.289580000000     0.241110000000     0.372260000000     0.00218194 
H105     H      0.381630000000     0.181920000000     0.368240000000     0.0573393  
H106     H      0.292390000000     0.180670000000     0.306450000000     0.0462617  
H107     H      0.335410000000     0.114580000000     0.429540000000     0.0486857  
H108     H      0.299040000000     0.159590000000     0.352150000000     0.0402729  
H109     H      0.427390000000     0.055210000000     0.425860000000     0.0473995  
H110     H      0.417890000000     0.137060000000     0.445770000000     0.0423885  
H111     H      0.419230000000     0.101900000000     0.407730000000     0.0402386  
H112     H      0.310580000000     0.146940000000     0.400040000000     0.0441286  
H113     H      0.297870000000     0.194670000000     0.390130000000     0.0564426  
H114     H      0.395250000000     0.095900000000     0.488740000000     0.0437726  
H115     H      0.135550000000     0.429410000000     0.430070000000     0.0522849  
H116     H      0.136600000000     0.391760000000     0.329260000000     0.0464946  
H117     H      0.136500000000     0.328880000000     0.392010000000     0.0838171  
H118     H      0.078300000000     0.492280000000     0.451630000000     0.0719664  
H119     H      0.140070000000     0.346940000000     0.305720000000     0.090728   
H120     H      0.081650000000     0.406120000000     0.469210000000     0.03888    
H121     H      0.081870000000     0.469110000000     0.406570000000     0.0437692  
H122     H      0.048120000000     0.432300000000     0.496240000000     0.0488258  
H123     H      0.170190000000     0.302050000000     0.365810000000     0.00237097 
H124     H      0.157050000000     0.397000000000     0.397650000000     0.0499457  
H125     H      0.170050000000     0.365530000000     0.302160000000     0.062813   
H126     H      0.061210000000     0.400880000000     0.400780000000     0.0456907  
H127     H      0.165840000000     0.385640000000     0.348950000000     0.0450422  
H128     H      0.048460000000     0.496210000000     0.432830000000     0.0661283  
H129     H      0.052430000000     0.412170000000     0.449460000000     0.0420873  
H130     H      0.052550000000     0.449490000000     0.412420000000     0.0417176  
H131     H      0.082700000000     0.368470000000     0.368370000000     0.0598354  
H132     H      0.165760000000     0.348470000000     0.385940000000     0.0648309  
H133     H      0.078060000000     0.450980000000     0.492720000000     0.0435038  
H134     H      0.310910000000     0.400090000000     0.147760000000     0.0449402  
H135     H      0.389450000000     0.466310000000     0.141570000000     0.0394616  
H136     H      0.391410000000     0.401280000000     0.081160000000     0.083472   
H137     H      0.320200000000     0.353140000000     0.242510000000     0.0436057  
H138     H      0.395810000000     0.488760000000     0.096820000000     0.0584285  
H139     H      0.328410000000     0.331430000000     0.156420000000     0.0389855  
H140     H      0.326250000000     0.396290000000     0.216990000000     0.0374723  
H141     H      0.292800000000     0.306290000000     0.181150000000     0.048628   
H142     H      0.427780000000     0.425580000000     0.056170000000    -0.00156642 
H143     H      0.335770000000     0.429640000000     0.115450000000     0.0574321  
H144     H      0.425120000000     0.491280000000     0.116770000000     0.0441533  
H145     H      0.381950000000     0.368120000000     0.182620000000     0.0485416  
H146     H      0.418400000000     0.445550000000     0.137770000000     0.0391061  
H147     H      0.290090000000     0.371830000000     0.242110000000     0.0476565  
H148     H      0.299400000000     0.352090000000     0.160200000000     0.0413831  
H149     H      0.298190000000     0.390030000000     0.195440000000     0.0402848  
H150     H      0.406810000000     0.397660000000     0.150310000000     0.0435867  
H151     H      0.419490000000     0.407630000000     0.102590000000     0.0552436  
H152     H      0.322050000000     0.308950000000     0.201180000000     0.04343    
H153     H      0.121170000000     0.113480000000     0.612750000000     0.0454271  
H154     H      0.147640000000     0.211920000000     0.649030000000     0.0407311  
H155     H      0.147390000000     0.149200000000     0.711710000000     0.0844882  
H156     H      0.027800000000     0.129100000000     0.582600000000     0.0616001  
H157     H      0.190180000000     0.214700000000     0.668280000000     0.0557196  
H158     H      0.070600000000     0.085720000000     0.648010000000     0.0388994  
H159     H      0.070350000000     0.148350000000     0.585280000000     0.0405397  
H160     H      0.045830000000     0.053570000000     0.615510000000     0.0469143  
H161     H      0.172300000000     0.181680000000     0.743700000000    -0.00170057 
H162     H      0.155140000000     0.138850000000     0.638200000000     0.0577012  
H163     H      0.172380000000     0.243940000000     0.681690000000     0.0440274  
H164     H      0.062900000000     0.158820000000     0.658730000000     0.0528881  
H165     H      0.132320000000     0.218290000000     0.682330000000     0.0406128  
H166     H      0.045540000000     0.115700000000     0.553300000000     0.0512113  
H167     H      0.085800000000     0.079350000000     0.614660000000     0.0395728  
H168     H      0.085640000000     0.115060000000     0.578880000000     0.0400348  
H169     H      0.096870000000     0.184190000000     0.684190000000     0.0455865  
H170     H      0.132410000000     0.182620000000     0.718110000000     0.0562039  
H171     H      0.028000000000     0.082770000000     0.628970000000     0.0506758  
H172     H      0.084290000000     0.180340000000     0.866490000000     0.0520137  
H173     H      0.077370000000     0.143360000000     0.967040000000     0.0409803  
H174     H      0.078960000000     0.080340000000     0.904510000000     0.0813813  
H175     H      0.143640000000     0.241640000000     0.848410000000     0.0744563  
H176     H      0.072210000000     0.099230000000     0.991200000000     0.0580602  
H177     H      0.139380000000     0.154950000000     0.830390000000     0.0403224  
H178     H      0.138100000000     0.218050000000     0.892840000000     0.0440646  
H179     H      0.174650000000     0.180340000000     0.804970000000     0.0556804  
H180     H      0.043750000000     0.054310000000     0.929240000000    -0.00313707 
H181     H      0.060510000000     0.148850000000     0.897930000000     0.0444324  
H182     H      0.042080000000     0.117820000000     0.992320000000     0.0463942  
H183     H      0.156450000000     0.149460000000     0.899560000000     0.0455356  
H184     H      0.048950000000     0.137490000000     0.945940000000     0.0407145  
H185     H      0.173150000000     0.244150000000     0.868000000000     0.0635258  
H186     H      0.167880000000     0.160660000000     0.851420000000     0.0423     
H187     H      0.167150000000     0.197700000000     0.887990000000     0.041572   
H188     H      0.132660000000     0.117980000000     0.931010000000     0.0570246  
H189     H      0.049860000000     0.100520000000     0.909480000000     0.0553356  
H190     H      0.144640000000     0.199160000000     0.806340000000     0.0481029  
H191     H      0.133270000000     0.430930000000     0.617280000000     0.0484799  
H192     H      0.140110000000     0.330480000000     0.654460000000     0.0402847  
H193     H      0.138720000000     0.393100000000     0.717390000000     0.0819515  
H194     H      0.073780000000     0.448890000000     0.555930000000     0.0415331  
H195     H      0.145300000000     0.306400000000     0.698630000000     0.059851   
H196     H      0.078250000000     0.467150000000     0.642660000000     0.038171   
H197     H      0.079370000000     0.404560000000     0.579700000000     0.037862   
H198     H      0.042980000000     0.492550000000     0.617270000000     0.0482104  
H199     H      0.173950000000     0.368360000000     0.743380000000    -0.00203591 
H200     H      0.157060000000     0.399550000000     0.648820000000     0.0437536  
H201     H      0.175390000000     0.305170000000     0.679960000000     0.0447157  
H202     H      0.061120000000     0.398020000000     0.648350000000     0.0449537  
H203     H      0.168570000000     0.351540000000     0.660240000000     0.0395742  
H204     H      0.044230000000     0.429350000000     0.553660000000     0.0484538  
H205     H      0.049730000000     0.446150000000     0.637050000000     0.0410188  
H206     H      0.050370000000     0.409490000000     0.600110000000     0.0410421  
H207     H      0.084910000000     0.366630000000     0.679870000000     0.0579529  
H208     H      0.167770000000     0.388060000000     0.697160000000     0.0551977  
H209     H      0.072960000000     0.491110000000     0.598390000000     0.0419552  
H210     H      0.314930000000     0.133800000000     0.634130000000     0.0503671  
H211     H      0.403600000000     0.089770000000     0.653000000000     0.0400922  
H212     H      0.403540000000     0.152640000000     0.590360000000     0.0832997  
H213     H      0.270140000000     0.162070000000     0.705390000000     0.059783   
H214     H      0.447380000000     0.092000000000     0.635530000000     0.058806   
H215     H      0.314160000000     0.207170000000     0.645030000000     0.039255   
H216     H      0.313880000000     0.144440000000     0.707820000000     0.0397073  
H217     H      0.284820000000     0.237030000000     0.674230000000     0.0487943  
H218     H      0.432710000000     0.123210000000     0.560490000000    -3.28684e-05
H219     H      0.353100000000     0.112180000000     0.612460000000     0.0443696  
H220     H      0.432890000000     0.060020000000     0.623600000000     0.0443164  
H221     H      0.364550000000     0.184760000000     0.685750000000     0.0456155  
H222     H      0.390690000000     0.081890000000     0.618830000000     0.0399439  
H223     H      0.284520000000     0.173800000000     0.737500000000     0.0541272  
H224     H      0.327010000000     0.215130000000     0.679220000000     0.0411088  
H225     H      0.326830000000     0.178570000000     0.715820000000     0.0410639  
H226     H      0.402720000000     0.163150000000     0.664080000000     0.0575977  
H227     H      0.390770000000     0.118480000000     0.582350000000     0.055359   
H228     H      0.270340000000     0.205000000000     0.662430000000     0.0489163  
H229     H      0.401560000000     0.381430000000     0.881720000000     0.0498513  
H230     H      0.311740000000     0.405140000000     0.842640000000     0.0402315  
H231     H      0.311870000000     0.342310000000     0.905390000000     0.0885334  
H232     H      0.450710000000     0.449980000000     0.908280000000     0.0415408  
H233     H      0.267550000000     0.389020000000     0.847330000000     0.060576   
H234     H      0.406410000000     0.392040000000     0.954840000000     0.0442747  
H235     H      0.406540000000     0.454810000000     0.892040000000     0.0375804  
H236     H      0.438030000000     0.419610000000     0.983230000000     0.058341   
H237     H      0.280460000000     0.313870000000     0.877520000000     0.0113803  
H238     H      0.361560000000     0.361790000000     0.862190000000     0.0481737  
H239     H      0.280150000000     0.377490000000     0.814270000000     0.0453618  
H240     H      0.356640000000     0.435440000000     0.935260000000     0.0497172  
H241     H      0.323170000000     0.370540000000     0.833930000000     0.0420889  
H242     H      0.438180000000     0.483130000000     0.919670000000     0.0484647  
H243     H      0.395000000000     0.426650000000     0.963550000000     0.0544346  
H244     H      0.395080000000     0.463570000000     0.926620000000     0.0436286  
H245     H      0.316630000000     0.415790000000     0.915740000000     0.059264   
H246     H      0.323170000000     0.333670000000     0.870760000000     0.0682027  
H247     H      0.450620000000     0.408170000000     0.950120000000     0.0424758  
H248     H      0.406470000000     0.149550000000     0.897740000000     0.0450778  
H249     H      0.328020000000     0.155830000000     0.831440000000     0.0401194  
H250     H      0.325920000000     0.216100000000     0.896600000000     0.0844703  
H251     H      0.397260000000     0.054730000000     0.944530000000     0.0438985  
H252     H      0.321690000000     0.200610000000     0.809050000000     0.0587613  
H253     H      0.388840000000     0.140720000000     0.966390000000     0.0398991  
H254     H      0.391210000000     0.080300000000     0.901390000000     0.0374632  
H255     H      0.424430000000     0.116030000000     0.991550000000     0.0524444  
H256     H      0.289580000000     0.241110000000     0.872260000000     0.00217194 
H257     H      0.381630000000     0.181920000000     0.868250000000     0.0573643  
H258     H      0.292390000000     0.180670000000     0.806450000000     0.046269   
H259     H      0.335410000000     0.114580000000     0.929540000000     0.0486967  
H260     H      0.299040000000     0.159590000000     0.852150000000     0.0402719  
H261     H      0.427390000000     0.055210000000     0.925850000000     0.0473798  
H262     H      0.417890000000     0.137060000000     0.945770000000     0.0423963  
H263     H      0.419230000000     0.101900000000     0.907730000000     0.0402412  
H264     H      0.310580000000     0.146940000000     0.900040000000     0.0441339  
H265     H      0.297870000000     0.194670000000     0.890130000000     0.0564563  
H266     H      0.395250000000     0.095900000000     0.988740000000     0.0438022  
H267     H      0.135550000000     0.429410000000     0.930060000000     0.052317   
H268     H      0.136600000000     0.391760000000     0.829260000000     0.0464946  
H269     H      0.136500000000     0.328880000000     0.892010000000     0.083825   
H270     H      0.078300000000     0.492280000000     0.951640000000     0.0719741  
H271     H      0.140070000000     0.346940000000     0.805720000000     0.0907273  
H272     H      0.081650000000     0.406120000000     0.969200000000     0.0389159  
H273     H      0.081870000000     0.469110000000     0.906570000000     0.0437731  
H274     H      0.048120000000     0.432300000000     0.996240000000     0.0488708  
H275     H      0.170190000000     0.302050000000     0.865810000000     0.00237466 
H276     H      0.157050000000     0.397000000000     0.897650000000     0.0499486  
H277     H      0.170050000000     0.365530000000     0.802160000000     0.0628127  
H278     H      0.061210000000     0.400880000000     0.900780000000     0.0456914  
H279     H      0.165840000000     0.385640000000     0.848950000000     0.0450432  
H280     H      0.048460000000     0.496210000000     0.932830000000     0.0661236  
H281     H      0.052430000000     0.412170000000     0.949460000000     0.0421015  
H282     H      0.052550000000     0.449490000000     0.912420000000     0.0417184  
H283     H      0.082700000000     0.368470000000     0.868370000000     0.0598619  
H284     H      0.165760000000     0.348470000000     0.885940000000     0.0648368  
H285     H      0.078060000000     0.450980000000     0.992720000000     0.0435339  
H286     H      0.310910000000     0.400090000000     0.647760000000     0.0449511  
H287     H      0.389450000000     0.466310000000     0.641570000000     0.0394671  
H288     H      0.391410000000     0.401280000000     0.581160000000     0.0834851  
H289     H      0.320200000000     0.353140000000     0.742510000000     0.043605   
H290     H      0.395810000000     0.488760000000     0.596820000000     0.0584232  
H291     H      0.328410000000     0.331430000000     0.656420000000     0.0389933  
H292     H      0.326250000000     0.396290000000     0.716990000000     0.0374741  
H293     H      0.292800000000     0.306290000000     0.681150000000     0.0486317  
H294     H      0.427780000000     0.425580000000     0.556170000000    -0.0015314  
H295     H      0.335770000000     0.429640000000     0.615450000000     0.0574404  
H296     H      0.425120000000     0.491280000000     0.616770000000     0.0441431  
H297     H      0.381950000000     0.368120000000     0.682620000000     0.0485419  
H298     H      0.418400000000     0.445550000000     0.637770000000     0.0391117  
H299     H      0.290090000000     0.371830000000     0.742110000000     0.0476565  
H300     H      0.299400000000     0.352090000000     0.660200000000     0.0413904  
H301     H      0.298190000000     0.390030000000     0.695440000000     0.0402874  
H302     H      0.406810000000     0.397660000000     0.650310000000     0.0435816  
H303     H      0.419490000000     0.407630000000     0.602590000000     0.0552461  
H304     H      0.322050000000     0.308950000000     0.701180000000     0.0434305  
H305     H      0.121170000000     0.613490000000     0.112750000000     0.0454553  
H306     H      0.147640000000     0.711910000000     0.149030000000     0.0407397  
H307     H      0.147390000000     0.649210000000     0.211710000000     0.0845631  
H308     H      0.027800000000     0.629100000000     0.082600000000     0.0616157  
H309     H      0.190180000000     0.714690000000     0.168280000000     0.0557209  
H310     H      0.070600000000     0.585720000000     0.148010000000     0.0389126  
H311     H      0.070350000000     0.648350000000     0.085270000000     0.040497   
H312     H      0.045830000000     0.553570000000     0.115510000000     0.0469422  
H313     H      0.172300000000     0.681680000000     0.243700000000    -0.00174776 
H314     H      0.155140000000     0.638850000000     0.138200000000     0.057686   
H315     H      0.172380000000     0.743940000000     0.181690000000     0.0440278  
H316     H      0.062900000000     0.658820000000     0.158740000000     0.0528802  
H317     H      0.132320000000     0.718280000000     0.182330000000     0.0406335  
H318     H      0.045540000000     0.615700000000     0.053300000000     0.0512071  
H319     H      0.085800000000     0.579350000000     0.114660000000     0.0395821  
H320     H      0.085640000000     0.615060000000     0.078870000000     0.0399939  
H321     H      0.096870000000     0.684190000000     0.184190000000     0.0455847  
H322     H      0.132410000000     0.682620000000     0.218110000000     0.0562531  
H323     H      0.028000000000     0.582770000000     0.128970000000     0.0506891  
H324     H      0.084290000000     0.680340000000     0.366490000000     0.0520133  
H325     H      0.077370000000     0.643360000000     0.467040000000     0.0409586  
H326     H      0.078960000000     0.580340000000     0.404510000000     0.0814075  
H327     H      0.143640000000     0.741640000000     0.348410000000     0.0744738  
H328     H      0.072210000000     0.599230000000     0.491200000000     0.0580416  
H329     H      0.139380000000     0.654950000000     0.330390000000     0.0403459  
H330     H      0.138100000000     0.718050000000     0.392840000000     0.0440584  
H331     H      0.174650000000     0.680340000000     0.304970000000     0.055623   
H332     H      0.043750000000     0.554310000000     0.429240000000    -0.00316483 
H333     H      0.060510000000     0.648850000000     0.397930000000     0.0444302  
H334     H      0.042080000000     0.617820000000     0.492320000000     0.0463634  
H335     H      0.156450000000     0.649460000000     0.399560000000     0.0455338  
H336     H      0.048950000000     0.637490000000     0.445930000000     0.0406978  
H337     H      0.173150000000     0.744150000000     0.368000000000     0.0635439  
H338     H      0.167880000000     0.660660000000     0.351420000000     0.0423179  
H339     H      0.167150000000     0.697700000000     0.387980000000     0.041578   
H340     H      0.132660000000     0.617980000000     0.431010000000     0.0570233  
H341     H      0.049860000000     0.600520000000     0.409480000000     0.0553465  
H342     H      0.144640000000     0.699160000000     0.306340000000     0.0480475  
H343     H      0.133270000000     0.930930000000     0.117280000000     0.0484723  
H344     H      0.140110000000     0.830480000000     0.154460000000     0.0402794  
H345     H      0.138720000000     0.893100000000     0.217390000000     0.0819602  
H346     H      0.073780000000     0.948890000000     0.055930000000     0.0415157  
H347     H      0.145300000000     0.806390000000     0.198630000000     0.0598279  
H348     H      0.078250000000     0.967150000000     0.142660000000     0.0382031  
H349     H      0.079370000000     0.904560000000     0.079700000000     0.0378378  
H350     H      0.042980000000     0.992550000000     0.117270000000     0.0482322  
H351     H      0.173950000000     0.868360000000     0.243380000000    -0.00203266 
H352     H      0.157060000000     0.899550000000     0.148820000000     0.0437586  
H353     H      0.175390000000     0.805170000000     0.179960000000     0.0446989  
H354     H      0.061120000000     0.898020000000     0.148350000000     0.0449408  
H355     H      0.168570000000     0.851540000000     0.160240000000     0.0395711  
H356     H      0.044230000000     0.929350000000     0.053660000000     0.0484281  
H357     H      0.049730000000     0.946150000000     0.137040000000     0.0410506  
H358     H      0.050370000000     0.909490000000     0.100110000000     0.0410241  
H359     H      0.084910000000     0.866630000000     0.179860000000     0.0579752  
H360     H      0.167770000000     0.888060000000     0.197160000000     0.055202   
H361     H      0.072960000000     0.991110000000     0.098390000000     0.0419703  
H362     H      0.314930000000     0.633800000000     0.134130000000     0.0503692  
H363     H      0.403600000000     0.589770000000     0.153010000000     0.0400929  
H364     H      0.403540000000     0.652640000000     0.090360000000     0.0832835  
H365     H      0.270140000000     0.662060000000     0.205390000000     0.0597646  
H366     H      0.447380000000     0.592000000000     0.135530000000     0.0587843  
H367     H      0.314160000000     0.707170000000     0.145030000000     0.0392123  
H368     H      0.313880000000     0.644440000000     0.207820000000     0.0397167  
H369     H      0.284820000000     0.737030000000     0.174230000000     0.0487994  
H370     H      0.432710000000     0.623210000000     0.060490000000    -5.73833e-05
H371     H      0.353100000000     0.612180000000     0.112460000000     0.0443657  
H372     H      0.432890000000     0.560020000000     0.123600000000     0.0443086  
H373     H      0.364550000000     0.684760000000     0.185750000000     0.0456134  
H374     H      0.390690000000     0.581890000000     0.118830000000     0.0399516  
H375     H      0.284520000000     0.673800000000     0.237500000000     0.05412    
H376     H      0.327010000000     0.715130000000     0.179220000000     0.0410702  
H377     H      0.326830000000     0.678570000000     0.215820000000     0.0410694  
H378     H      0.402720000000     0.663150000000     0.164080000000     0.0575989  
H379     H      0.390770000000     0.618480000000     0.082350000000     0.0553432  
H380     H      0.270340000000     0.705000000000     0.162430000000     0.0489209  
H381     H      0.401560000000     0.881430000000     0.381720000000     0.0498607  
H382     H      0.311740000000     0.905140000000     0.342640000000     0.0402406  
H383     H      0.311870000000     0.842310000000     0.405390000000     0.0885255  
H384     H      0.450710000000     0.949980000000     0.408280000000     0.0415907  
H385     H      0.267550000000     0.889020000000     0.347330000000     0.060578   
H386     H      0.406410000000     0.892040000000     0.454840000000     0.0442573  
H387     H      0.406540000000     0.954820000000     0.392040000000     0.0375742  
H388     H      0.438030000000     0.919610000000     0.483230000000     0.058311   
H389     H      0.280460000000     0.813870000000     0.377510000000     0.0113554  
H390     H      0.361560000000     0.861790000000     0.362190000000     0.048171   
H391     H      0.280150000000     0.877490000000     0.314270000000     0.0453631  
H392     H      0.356640000000     0.935440000000     0.435260000000     0.0497113  
H393     H      0.323170000000     0.870540000000     0.333930000000     0.0420924  
H394     H      0.438180000000     0.983130000000     0.419670000000     0.0485295  
H395     H      0.395000000000     0.926650000000     0.463550000000     0.0544213  
H396     H      0.395080000000     0.963570000000     0.426620000000     0.0436258  
H397     H      0.316630000000     0.915790000000     0.415740000000     0.0592661  
H398     H      0.323170000000     0.833670000000     0.370760000000     0.0682034  
H399     H      0.450620000000     0.908170000000     0.450120000000     0.0424655  
H400     H      0.406470000000     0.649550000000     0.397740000000     0.0450856  
H401     H      0.328020000000     0.655830000000     0.331440000000     0.0401311  
H402     H      0.325920000000     0.716100000000     0.396600000000     0.0844578  
H403     H      0.397260000000     0.554730000000     0.444530000000     0.0439172  
H404     H      0.321690000000     0.700610000000     0.309050000000     0.0587569  
H405     H      0.388840000000     0.640720000000     0.466390000000     0.0398806  
H406     H      0.391210000000     0.580300000000     0.401390000000     0.0374782  
H407     H      0.424430000000     0.616030000000     0.491550000000     0.0524142  
H408     H      0.289580000000     0.741110000000     0.372260000000     0.00218115 
H409     H      0.381630000000     0.681920000000     0.368240000000     0.0573401  
H410     H      0.292390000000     0.680670000000     0.306450000000     0.0462648  
H411     H      0.335410000000     0.614580000000     0.429540000000     0.0486956  
H412     H      0.299040000000     0.659590000000     0.352150000000     0.0402781  
H413     H      0.427390000000     0.555210000000     0.425860000000     0.047419   
H414     H      0.417890000000     0.637060000000     0.445770000000     0.0423891  
H415     H      0.419230000000     0.601890000000     0.407730000000     0.0402524  
H416     H      0.310580000000     0.646940000000     0.400040000000     0.0441333  
H417     H      0.297870000000     0.694670000000     0.390130000000     0.0564439  
H418     H      0.395250000000     0.595900000000     0.488740000000     0.0437814  
H419     H      0.135550000000     0.929410000000     0.430070000000     0.0522953  
H420     H      0.136600000000     0.891760000000     0.329260000000     0.0465018  
H421     H      0.136500000000     0.828880000000     0.392010000000     0.083817   
H422     H      0.078300000000     0.992280000000     0.451630000000     0.0720006  
H423     H      0.140070000000     0.846940000000     0.305720000000     0.090729   
H424     H      0.081650000000     0.906120000000     0.469210000000     0.038887   
H425     H      0.081870000000     0.969110000000     0.406570000000     0.0437938  
H426     H      0.048120000000     0.932300000000     0.496240000000     0.0488324  
H427     H      0.170190000000     0.802050000000     0.365810000000     0.00237017 
H428     H      0.157050000000     0.897010000000     0.397650000000     0.049952   
H429     H      0.170050000000     0.865530000000     0.302160000000     0.062816   
H430     H      0.061210000000     0.900880000000     0.400780000000     0.0456925  
H431     H      0.165840000000     0.885640000000     0.348950000000     0.0450475  
H432     H      0.048460000000     0.996210000000     0.432830000000     0.0661669  
H433     H      0.052430000000     0.912180000000     0.449460000000     0.0421004  
H434     H      0.052550000000     0.949490000000     0.412420000000     0.0417279  
H435     H      0.082700000000     0.868470000000     0.368370000000     0.059837   
H436     H      0.165760000000     0.848470000000     0.385940000000     0.0648334  
H437     H      0.078060000000     0.950980000000     0.492720000000     0.043527   
H438     H      0.310910000000     0.900090000000     0.147760000000     0.0449394  
H439     H      0.389450000000     0.966310000000     0.141570000000     0.0394808  
H440     H      0.391410000000     0.901280000000     0.081160000000     0.083472   
H441     H      0.320200000000     0.853140000000     0.242510000000     0.0436     
H442     H      0.395810000000     0.988760000000     0.096820000000     0.0584562  
H443     H      0.328410000000     0.831430000000     0.156420000000     0.0389853  
H444     H      0.326250000000     0.896290000000     0.216990000000     0.0374835  
H445     H      0.292800000000     0.806290000000     0.181150000000     0.0486275  
H446     H      0.427780000000     0.925580000000     0.056170000000    -0.00157055 
H447     H      0.335770000000     0.929630000000     0.115450000000     0.0574666  
H448     H      0.425120000000     0.991280000000     0.116770000000     0.0441757  
H449     H      0.381950000000     0.868120000000     0.182620000000     0.048541   
H450     H      0.418400000000     0.945550000000     0.137770000000     0.0391126  
H451     H      0.290090000000     0.871840000000     0.242110000000     0.0476399  
H452     H      0.299400000000     0.852090000000     0.160200000000     0.0413848  
H453     H      0.298190000000     0.890030000000     0.195440000000     0.0402941  
H454     H      0.406810000000     0.897660000000     0.150310000000     0.0435914  
H455     H      0.419490000000     0.907630000000     0.102590000000     0.0552414  
H456     H      0.322050000000     0.808950000000     0.201180000000     0.0434293  
H457     H      0.121170000000     0.613490000000     0.612750000000     0.0454652  
H458     H      0.147640000000     0.711910000000     0.649030000000     0.0407492  
H459     H      0.147390000000     0.649210000000     0.711710000000     0.0845638  
H460     H      0.027800000000     0.629100000000     0.582600000000     0.0615991  
H461     H      0.190180000000     0.714690000000     0.668280000000     0.0557247  
H462     H      0.070600000000     0.585720000000     0.648010000000     0.0389136  
H463     H      0.070350000000     0.648350000000     0.585280000000     0.0405389  
H464     H      0.045830000000     0.553570000000     0.615510000000     0.0469435  
H465     H      0.172300000000     0.681680000000     0.743700000000    -0.00175136 
H466     H      0.155140000000     0.638850000000     0.638200000000     0.0576937  
H467     H      0.172380000000     0.743940000000     0.681690000000     0.0440273  
H468     H      0.062900000000     0.658820000000     0.658730000000     0.0528918  
H469     H      0.132320000000     0.718280000000     0.682330000000     0.0406355  
H470     H      0.045540000000     0.615700000000     0.553300000000     0.0512131  
H471     H      0.085800000000     0.579350000000     0.614660000000     0.0395889  
H472     H      0.085640000000     0.615060000000     0.578880000000     0.0400397  
H473     H      0.096870000000     0.684190000000     0.684190000000     0.0455836  
H474     H      0.132410000000     0.682620000000     0.718110000000     0.0562528  
H475     H      0.028000000000     0.582770000000     0.628970000000     0.0506856  
H476     H      0.084290000000     0.680340000000     0.866490000000     0.0520144  
H477     H      0.077370000000     0.643360000000     0.967040000000     0.0409814  
H478     H      0.078960000000     0.580340000000     0.904510000000     0.0814084  
H479     H      0.143640000000     0.741640000000     0.848410000000     0.0744548  
H480     H      0.072210000000     0.599230000000     0.991200000000     0.0580719  
H481     H      0.139380000000     0.654950000000     0.830390000000     0.0403363  
H482     H      0.138100000000     0.718050000000     0.892840000000     0.0440647  
H483     H      0.174650000000     0.680340000000     0.804970000000     0.055657   
H484     H      0.043750000000     0.554310000000     0.929240000000    -0.00316482 
H485     H      0.060510000000     0.648850000000     0.897930000000     0.0444339  
H486     H      0.042080000000     0.617820000000     0.992320000000     0.0463922  
H487     H      0.156450000000     0.649460000000     0.899560000000     0.0455401  
H488     H      0.048950000000     0.637490000000     0.945940000000     0.0407137  
H489     H      0.173150000000     0.744150000000     0.868000000000     0.0635247  
H490     H      0.167880000000     0.660660000000     0.851420000000     0.0423124  
H491     H      0.167150000000     0.697700000000     0.887990000000     0.0415734  
H492     H      0.132660000000     0.617980000000     0.931010000000     0.0570354  
H493     H      0.049860000000     0.600520000000     0.909480000000     0.0553474  
H494     H      0.144640000000     0.699160000000     0.806340000000     0.0480799  
H495     H      0.133270000000     0.930930000000     0.617280000000     0.0484913  
H496     H      0.140110000000     0.830480000000     0.654460000000     0.0402878  
H497     H      0.138720000000     0.893100000000     0.717390000000     0.0819593  
H498     H      0.073780000000     0.948890000000     0.555930000000     0.0415433  
H499     H      0.145300000000     0.806390000000     0.698630000000     0.0598282  
H500     H      0.078250000000     0.967150000000     0.642660000000     0.0381885  
H501     H      0.079370000000     0.904560000000     0.579700000000     0.0378627  
H502     H      0.042980000000     0.992550000000     0.617270000000     0.0482382  
H503     H      0.173950000000     0.868360000000     0.743380000000    -0.00203279 
H504     H      0.157060000000     0.899550000000     0.648820000000     0.0437591  
H505     H      0.175390000000     0.805170000000     0.679960000000     0.044703   
H506     H      0.061120000000     0.898020000000     0.648350000000     0.0449557  
H507     H      0.168570000000     0.851540000000     0.660240000000     0.039578   
H508     H      0.044230000000     0.929350000000     0.553660000000     0.0484538  
H509     H      0.049730000000     0.946150000000     0.637050000000     0.0410247  
H510     H      0.050370000000     0.909490000000     0.600110000000     0.0410411  
H511     H      0.084910000000     0.866630000000     0.679870000000     0.0579541  
H512     H      0.167770000000     0.888060000000     0.697160000000     0.0552039  
H513     H      0.072960000000     0.991110000000     0.598390000000     0.0419843  
H514     H      0.314930000000     0.633800000000     0.634130000000     0.0503786  
H515     H      0.403600000000     0.589770000000     0.653000000000     0.0401053  
H516     H      0.403540000000     0.652640000000     0.590360000000     0.0832998  
H517     H      0.270140000000     0.662060000000     0.705390000000     0.0597672  
H518     H      0.447380000000     0.592000000000     0.635530000000     0.058814   
H519     H      0.314160000000     0.707170000000     0.645030000000     0.0392221  
H520     H      0.313880000000     0.644440000000     0.707820000000     0.0397171  
H521     H      0.284820000000     0.737030000000     0.674230000000     0.0488038  
H522     H      0.432710000000     0.623210000000     0.560490000000    -3.19842e-05
H523     H      0.353100000000     0.612180000000     0.612460000000     0.0443768  
H524     H      0.432890000000     0.560020000000     0.623600000000     0.0443414  
H525     H      0.364550000000     0.684760000000     0.685750000000     0.0456141  
H526     H      0.390690000000     0.581890000000     0.618830000000     0.0399588  
H527     H      0.284520000000     0.673800000000     0.737500000000     0.0541196  
H528     H      0.327010000000     0.715130000000     0.679220000000     0.0410722  
H529     H      0.326830000000     0.678570000000     0.715820000000     0.0410686  
H530     H      0.402720000000     0.663150000000     0.664080000000     0.0576006  
H531     H      0.390770000000     0.618480000000     0.582350000000     0.055364   
H532     H      0.270340000000     0.705000000000     0.662430000000     0.0489282  
H533     H      0.401560000000     0.881430000000     0.881720000000     0.0498586  
H534     H      0.311740000000     0.905140000000     0.842640000000     0.0402411  
H535     H      0.311870000000     0.842310000000     0.905390000000     0.0885341  
H536     H      0.450710000000     0.949980000000     0.908280000000     0.0415527  
H537     H      0.267550000000     0.889020000000     0.847330000000     0.0605804  
H538     H      0.406410000000     0.892040000000     0.954840000000     0.0442741  
H539     H      0.406540000000     0.954820000000     0.892040000000     0.0375856  
H540     H      0.438030000000     0.919610000000     0.983230000000     0.0583412  
H541     H      0.280460000000     0.813870000000     0.877520000000     0.0113758  
H542     H      0.361560000000     0.861790000000     0.862190000000     0.0481731  
H543     H      0.280150000000     0.877490000000     0.814270000000     0.045363   
H544     H      0.356640000000     0.935440000000     0.935260000000     0.0497258  
H545     H      0.323170000000     0.870540000000     0.833930000000     0.0420918  
H546     H      0.438180000000     0.983130000000     0.919670000000     0.0484931  
H547     H      0.395000000000     0.926650000000     0.963550000000     0.0544413  
H548     H      0.395080000000     0.963570000000     0.926620000000     0.0436425  
H549     H      0.316630000000     0.915790000000     0.915740000000     0.0592745  
H550     H      0.323170000000     0.833670000000     0.870760000000     0.0682042  
H551     H      0.450620000000     0.908170000000     0.950120000000     0.0424749  
H552     H      0.406470000000     0.649550000000     0.897740000000     0.0450808  
H553     H      0.328020000000     0.655830000000     0.831440000000     0.0401255  
H554     H      0.325920000000     0.716100000000     0.896600000000     0.08447    
H555     H      0.397260000000     0.554730000000     0.944530000000     0.0439209  
H556     H      0.321690000000     0.700610000000     0.809050000000     0.0587621  
H557     H      0.388840000000     0.640720000000     0.966390000000     0.0399     
H558     H      0.391210000000     0.580300000000     0.901390000000     0.0374817  
H559     H      0.424430000000     0.616030000000     0.991550000000     0.0524452  
H560     H      0.289580000000     0.741110000000     0.872260000000     0.00217113 
H561     H      0.381630000000     0.681920000000     0.868250000000     0.057365   
H562     H      0.292390000000     0.680670000000     0.806450000000     0.0462721  
H563     H      0.335410000000     0.614580000000     0.929540000000     0.0487065  
H564     H      0.299040000000     0.659590000000     0.852150000000     0.0402771  
H565     H      0.427390000000     0.555210000000     0.925850000000     0.0473993  
H566     H      0.417890000000     0.637060000000     0.945770000000     0.0423969  
H567     H      0.419230000000     0.601890000000     0.907730000000     0.040255   
H568     H      0.310580000000     0.646940000000     0.900040000000     0.0441385  
H569     H      0.297870000000     0.694670000000     0.890130000000     0.0564575  
H570     H      0.395250000000     0.595900000000     0.988740000000     0.0438109  
H571     H      0.135550000000     0.929410000000     0.930060000000     0.0523273  
H572     H      0.136600000000     0.891760000000     0.829260000000     0.0465018  
H573     H      0.136500000000     0.828880000000     0.892010000000     0.0838249  
H574     H      0.078300000000     0.992280000000     0.951640000000     0.0720081  
H575     H      0.140070000000     0.846940000000     0.805720000000     0.0907283  
H576     H      0.081650000000     0.906120000000     0.969200000000     0.0389228  
H577     H      0.081870000000     0.969110000000     0.906570000000     0.0437976  
H578     H      0.048120000000     0.932300000000     0.996240000000     0.0488771  
H579     H      0.170190000000     0.802050000000     0.865810000000     0.00237386 
H580     H      0.157050000000     0.897010000000     0.897650000000     0.0499549  
H581     H      0.170050000000     0.865530000000     0.802160000000     0.0628157  
H582     H      0.061210000000     0.900880000000     0.900780000000     0.0456932  
H583     H      0.165840000000     0.885640000000     0.848950000000     0.0450485  
H584     H      0.048460000000     0.996210000000     0.932830000000     0.0661618  
H585     H      0.052430000000     0.912180000000     0.949460000000     0.0421145  
H586     H      0.052550000000     0.949490000000     0.912420000000     0.0417286  
H587     H      0.082700000000     0.868470000000     0.868370000000     0.0598634  
H588     H      0.165760000000     0.848470000000     0.885940000000     0.0648392  
H589     H      0.078060000000     0.950980000000     0.992720000000     0.0435567  
H590     H      0.310910000000     0.900090000000     0.647760000000     0.0449502  
H591     H      0.389450000000     0.966310000000     0.641570000000     0.0394862  
H592     H      0.391410000000     0.901280000000     0.581160000000     0.083485   
H593     H      0.320200000000     0.853140000000     0.742510000000     0.0435993  
H594     H      0.395810000000     0.988760000000     0.596820000000     0.0584508  
H595     H      0.328410000000     0.831430000000     0.656420000000     0.0389931  
H596     H      0.326250000000     0.896290000000     0.716990000000     0.0374852  
H597     H      0.292800000000     0.806290000000     0.681150000000     0.0486312  
H598     H      0.427780000000     0.925580000000     0.556170000000    -0.00153566 
H599     H      0.335770000000     0.929630000000     0.615450000000     0.0574748  
H600     H      0.425120000000     0.991280000000     0.616770000000     0.0441655  
H601     H      0.381950000000     0.868120000000     0.682620000000     0.0485412  
H602     H      0.418400000000     0.945550000000     0.637770000000     0.0391182  
H603     H      0.290090000000     0.871840000000     0.742110000000     0.0476399  
H604     H      0.299400000000     0.852090000000     0.660200000000     0.041392   
H605     H      0.298190000000     0.890030000000     0.695440000000     0.0402966  
H606     H      0.406810000000     0.897660000000     0.650310000000     0.0435863  
H607     H      0.419490000000     0.907630000000     0.602590000000     0.0552439  
H608     H      0.322050000000     0.808950000000     0.701180000000     0.0434298  
H609     H      0.621170000000     0.113480000000     0.112750000000     0.0454191  
H610     H      0.647640000000     0.211920000000     0.149030000000     0.0407103  
H611     H      0.647390000000     0.149200000000     0.211710000000     0.084476   
H612     H      0.527800000000     0.129100000000     0.082600000000     0.0614669  
H613     H      0.690180000000     0.214700000000     0.168280000000     0.0557194  
H614     H      0.570600000000     0.085720000000     0.148010000000     0.0388567  
H615     H      0.570350000000     0.148350000000     0.085270000000     0.0404556  
H616     H      0.545830000000     0.053570000000     0.115510000000     0.0468676  
H617     H      0.672300000000     0.181680000000     0.243700000000    -0.00169341 
H618     H      0.655140000000     0.138850000000     0.138200000000     0.0577001  
H619     H      0.672380000000     0.243940000000     0.181690000000     0.0440249  
H620     H      0.562900000000     0.158820000000     0.158740000000     0.0527847  
H621     H      0.632320000000     0.218290000000     0.182330000000     0.0405874  
H622     H      0.545540000000     0.115700000000     0.053300000000     0.0511595  
H623     H      0.585800000000     0.079350000000     0.114660000000     0.0395697  
H624     H      0.585640000000     0.115060000000     0.078870000000     0.0399926  
H625     H      0.596870000000     0.184190000000     0.184190000000     0.0455455  
H626     H      0.632410000000     0.182620000000     0.218110000000     0.0561815  
H627     H      0.528000000000     0.082770000000     0.128970000000     0.0505315  
H628     H      0.584290000000     0.180340000000     0.366490000000     0.051951   
H629     H      0.577370000000     0.143360000000     0.467040000000     0.040924   
H630     H      0.578960000000     0.080340000000     0.404510000000     0.0813636  
H631     H      0.643640000000     0.241640000000     0.348410000000     0.0744562  
H632     H      0.572210000000     0.099230000000     0.491200000000     0.0580296  
H633     H      0.639380000000     0.154950000000     0.330390000000     0.0403156  
H634     H      0.638100000000     0.218050000000     0.392840000000     0.0440413  
H635     H      0.674650000000     0.180340000000     0.304970000000     0.0556468  
H636     H      0.543750000000     0.054310000000     0.429240000000    -0.00321791 
H637     H      0.560510000000     0.148850000000     0.397930000000     0.0443489  
H638     H      0.542080000000     0.117820000000     0.492320000000     0.046295   
H639     H      0.656450000000     0.149460000000     0.399560000000     0.0455344  
H640     H      0.548950000000     0.137490000000     0.445930000000     0.0406102  
H641     H      0.673150000000     0.244150000000     0.368000000000     0.0635444  
H642     H      0.667880000000     0.160660000000     0.351420000000     0.0423093  
H643     H      0.667150000000     0.197700000000     0.387980000000     0.0415802  
H644     H      0.632660000000     0.117980000000     0.431010000000     0.0570164  
H645     H      0.549860000000     0.100520000000     0.409480000000     0.0553091  
H646     H      0.644640000000     0.199160000000     0.306340000000     0.0480514  
H647     H      0.633270000000     0.430930000000     0.117280000000     0.048466   
H648     H      0.640110000000     0.330480000000     0.154460000000     0.0402602  
H649     H      0.638720000000     0.393100000000     0.217390000000     0.0819355  
H650     H      0.573780000000     0.448890000000     0.055930000000     0.0415089  
H651     H      0.645300000000     0.306400000000     0.198630000000     0.0598309  
H652     H      0.578250000000     0.467150000000     0.142660000000     0.0381533  
H653     H      0.579360000000     0.404560000000     0.079700000000     0.0378057  
H654     H      0.542980000000     0.492550000000     0.117270000000     0.0481363  
H655     H      0.673950000000     0.368360000000     0.243380000000    -0.00203544 
H656     H      0.657060000000     0.399550000000     0.148820000000     0.0437581  
H657     H      0.675390000000     0.305170000000     0.179960000000     0.0447109  
H658     H      0.561120000000     0.398020000000     0.148350000000     0.044861   
H659     H      0.668570000000     0.351540000000     0.160240000000     0.0395712  
H660     H      0.544230000000     0.429350000000     0.053660000000     0.0483608  
H661     H      0.549730000000     0.446150000000     0.137040000000     0.0409562  
H662     H      0.550360000000     0.409490000000     0.100110000000     0.0409202  
H663     H      0.584910000000     0.366630000000     0.179860000000     0.0579128  
H664     H      0.667770000000     0.388060000000     0.197160000000     0.0551991  
H665     H      0.572960000000     0.491110000000     0.098390000000     0.0419421  
H666     H      0.814930000000     0.133800000000     0.134130000000     0.0503652  
H667     H      0.903600000000     0.089770000000     0.153010000000     0.0400417  
H668     H      0.903540000000     0.152640000000     0.090360000000     0.0832461  
H669     H      0.770140000000     0.162070000000     0.205390000000     0.0597851  
H670     H      0.947380000000     0.092000000000     0.135530000000     0.0586435  
H671     H      0.814160000000     0.207170000000     0.145030000000     0.0392493  
H672     H      0.813880000000     0.144440000000     0.207820000000     0.039701   
H673     H      0.784820000000     0.237030000000     0.174230000000     0.048786   
H674     H      0.932710000000     0.123210000000     0.060490000000    -0.000106537
H675     H      0.853100000000     0.112180000000     0.112460000000     0.0443624  
H676     H      0.932890000000     0.060020000000     0.123600000000     0.0442273  
H677     H      0.864550000000     0.184760000000     0.185750000000     0.0455859  
H678     H      0.890690000000     0.081890000000     0.118830000000     0.0399424  
H679     H      0.784520000000     0.173800000000     0.237500000000     0.0541269  
H680     H      0.827000000000     0.215130000000     0.179220000000     0.0411137  
H681     H      0.826830000000     0.178570000000     0.215820000000     0.0410496  
H682     H      0.902720000000     0.163150000000     0.164080000000     0.057525   
H683     H      0.890770000000     0.118480000000     0.082350000000     0.055342   
H684     H      0.770340000000     0.205000000000     0.162430000000     0.0489123  
H685     H      0.901560000000     0.381430000000     0.381720000000     0.0497855  
H686     H      0.811740000000     0.405140000000     0.342640000000     0.0402259  
H687     H      0.811870000000     0.342310000000     0.405390000000     0.0885196  
H688     H      0.950710000000     0.449980000000     0.408280000000     0.0414534  
H689     H      0.767550000000     0.389020000000     0.347330000000     0.0605798  
H690     H      0.906410000000     0.392040000000     0.454840000000     0.0442187  
H691     H      0.906540000000     0.454810000000     0.392040000000     0.037528   
H692     H      0.938030000000     0.419610000000     0.483230000000     0.0582487  
H693     H      0.780460000000     0.313870000000     0.377510000000     0.0113604  
H694     H      0.861560000000     0.361790000000     0.362190000000     0.0481451  
H695     H      0.780150000000     0.377490000000     0.314270000000     0.0453628  
H696     H      0.856640000000     0.435440000000     0.435260000000     0.0497067  
H697     H      0.823170000000     0.370540000000     0.333930000000     0.0420763  
H698     H      0.938180000000     0.483130000000     0.419670000000     0.0484467  
H699     H      0.895000000000     0.426650000000     0.463550000000     0.0544211  
H700     H      0.895080000000     0.463570000000     0.426620000000     0.0436169  
H701     H      0.816630000000     0.415790000000     0.415740000000     0.0592634  
H702     H      0.823170000000     0.333670000000     0.370760000000     0.0681889  
H703     H      0.950620000000     0.408170000000     0.450120000000     0.042332   
H704     H      0.906470000000     0.149550000000     0.397740000000     0.0450163  
H705     H      0.828020000000     0.155830000000     0.331440000000     0.0401119  
H706     H      0.825920000000     0.216100000000     0.396600000000     0.0844464  
H707     H      0.897260000000     0.054730000000     0.444530000000     0.0439057  
H708     H      0.821690000000     0.200610000000     0.309050000000     0.0587386  
H709     H      0.888840000000     0.140720000000     0.466390000000     0.0398561  
H710     H      0.891210000000     0.080300000000     0.401390000000     0.037433   
H711     H      0.924430000000     0.116030000000     0.491550000000     0.0523638  
H712     H      0.789580000000     0.241110000000     0.372260000000     0.00218305 
H713     H      0.881630000000     0.181920000000     0.368240000000     0.0572886  
H714     H      0.792390000000     0.180670000000     0.306450000000     0.0462607  
H715     H      0.835410000000     0.114580000000     0.429540000000     0.0486922  
H716     H      0.799040000000     0.159590000000     0.352150000000     0.040277   
H717     H      0.927390000000     0.055210000000     0.425860000000     0.0473426  
H718     H      0.917890000000     0.137060000000     0.445770000000     0.0423148  
H719     H      0.919230000000     0.101900000000     0.407730000000     0.0401631  
H720     H      0.810580000000     0.146940000000     0.400040000000     0.0441342  
H721     H      0.797870000000     0.194670000000     0.390130000000     0.0564469  
H722     H      0.895250000000     0.095900000000     0.488740000000     0.0437856  
H723     H      0.635550000000     0.429410000000     0.430070000000     0.0522826  
H724     H      0.636600000000     0.391760000000     0.329260000000     0.0464764  
H725     H      0.636500000000     0.328880000000     0.392010000000     0.083799   
H726     H      0.578300000000     0.492280000000     0.451630000000     0.0719707  
H727     H      0.640070000000     0.346940000000     0.305720000000     0.0907063  
H728     H      0.581650000000     0.406120000000     0.469210000000     0.0388481  
H729     H      0.581870000000     0.469110000000     0.406570000000     0.0437376  
H730     H      0.548120000000     0.432300000000     0.496240000000     0.0487668  
H731     H      0.670190000000     0.302050000000     0.365810000000     0.0023705  
H732     H      0.657050000000     0.397000000000     0.397650000000     0.0499529  
H733     H      0.670050000000     0.365530000000     0.302160000000     0.0628116  
H734     H      0.561210000000     0.400880000000     0.400780000000     0.0456112  
H735     H      0.665840000000     0.385640000000     0.348950000000     0.0450455  
H736     H      0.548460000000     0.496210000000     0.432830000000     0.0660708  
H737     H      0.552430000000     0.412170000000     0.449460000000     0.0419939  
H738     H      0.552550000000     0.449490000000     0.412420000000     0.0416245  
H739     H      0.582700000000     0.368470000000     0.368370000000     0.0597672  
H740     H      0.665760000000     0.348470000000     0.385940000000     0.064834   
H741     H      0.578060000000     0.450980000000     0.492720000000     0.0435079  
H742     H      0.810910000000     0.400090000000     0.147760000000     0.0449459  
H743     H      0.889450000000     0.466310000000     0.141570000000     0.0394347  
H744     H      0.891410000000     0.401280000000     0.081160000000     0.0834455  
H745     H      0.820200000000     0.353140000000     0.242510000000     0.043589   
H746     H      0.895820000000     0.488760000000     0.096820000000     0.0584552  
H747     H      0.828410000000     0.331430000000     0.156420000000     0.0389723  
H748     H      0.826250000000     0.396290000000     0.216990000000     0.0374604  
H749     H      0.792800000000     0.306290000000     0.181150000000     0.0486272  
H750     H      0.927780000000     0.425580000000     0.056170000000    -0.00162495 
H751     H      0.835770000000     0.429640000000     0.115450000000     0.0574391  
H752     H      0.925120000000     0.491280000000     0.116770000000     0.0441123  
H753     H      0.881950000000     0.368120000000     0.182620000000     0.0484907  
H754     H      0.918400000000     0.445550000000     0.137770000000     0.0390283  
H755     H      0.790090000000     0.371830000000     0.242110000000     0.0476566  
H756     H      0.799400000000     0.352090000000     0.160200000000     0.0413874  
H757     H      0.798190000000     0.390030000000     0.195440000000     0.0402894  
H758     H      0.906810000000     0.397660000000     0.150310000000     0.0435204  
H759     H      0.919490000000     0.407630000000     0.102590000000     0.0551684  
H760     H      0.822050000000     0.308950000000     0.201180000000     0.0434119  
H761     H      0.621170000000     0.113480000000     0.612750000000     0.0454291  
H762     H      0.647640000000     0.211920000000     0.649030000000     0.0407197  
H763     H      0.647390000000     0.149200000000     0.711710000000     0.0844768  
H764     H      0.527800000000     0.129100000000     0.582600000000     0.0614503  
H765     H      0.690180000000     0.214700000000     0.668280000000     0.0557233  
H766     H      0.570600000000     0.085720000000     0.648010000000     0.0388578  
H767     H      0.570350000000     0.148350000000     0.585280000000     0.0404975  
H768     H      0.545830000000     0.053570000000     0.615510000000     0.0468691  
H769     H      0.672300000000     0.181680000000     0.743700000000    -0.00169699 
H770     H      0.655140000000     0.138850000000     0.638200000000     0.0577079  
H771     H      0.672380000000     0.243940000000     0.681690000000     0.0440243  
H772     H      0.562900000000     0.158820000000     0.658730000000     0.0527963  
H773     H      0.632320000000     0.218290000000     0.682330000000     0.0405894  
H774     H      0.545540000000     0.115700000000     0.553300000000     0.0511656  
H775     H      0.585800000000     0.079350000000     0.614660000000     0.0395766  
H776     H      0.585640000000     0.115060000000     0.578880000000     0.0400386  
H777     H      0.596870000000     0.184190000000     0.684190000000     0.0455444  
H778     H      0.632410000000     0.182620000000     0.718110000000     0.0561813  
H779     H      0.528000000000     0.082770000000     0.628970000000     0.0505279  
H780     H      0.584290000000     0.180340000000     0.866490000000     0.0519522  
H781     H      0.577370000000     0.143360000000     0.967040000000     0.0409471  
H782     H      0.578960000000     0.080340000000     0.904510000000     0.0813647  
H783     H      0.643640000000     0.241640000000     0.848410000000     0.0744372  
H784     H      0.572210000000     0.099230000000     0.991200000000     0.0580603  
H785     H      0.639380000000     0.154950000000     0.830390000000     0.0403061  
H786     H      0.638100000000     0.218050000000     0.892840000000     0.0440477  
H787     H      0.674650000000     0.180340000000     0.804970000000     0.0556809  
H788     H      0.543750000000     0.054310000000     0.929240000000    -0.00321765 
H789     H      0.560510000000     0.148850000000     0.897930000000     0.0443527  
H790     H      0.542080000000     0.117820000000     0.992320000000     0.0463243  
H791     H      0.656450000000     0.149460000000     0.899560000000     0.0455408  
H792     H      0.548950000000     0.137490000000     0.945940000000     0.0406263  
H793     H      0.673150000000     0.244150000000     0.868000000000     0.0635253  
H794     H      0.667880000000     0.160660000000     0.851420000000     0.0423038  
H795     H      0.667150000000     0.197700000000     0.887990000000     0.0415757  
H796     H      0.632660000000     0.117980000000     0.931010000000     0.0570287  
H797     H      0.549860000000     0.100520000000     0.909480000000     0.0553101  
H798     H      0.644640000000     0.199160000000     0.806340000000     0.0480839  
H799     H      0.633270000000     0.430930000000     0.617280000000     0.048485   
H800     H      0.640110000000     0.330480000000     0.654460000000     0.0402687  
H801     H      0.638720000000     0.393100000000     0.717390000000     0.0819347  
H802     H      0.573780000000     0.448890000000     0.555930000000     0.0415368  
H803     H      0.645300000000     0.306400000000     0.698630000000     0.0598313  
H804     H      0.578250000000     0.467150000000     0.642660000000     0.0381388  
H805     H      0.579360000000     0.404560000000     0.579700000000     0.0378307  
H806     H      0.542980000000     0.492550000000     0.617270000000     0.0481424  
H807     H      0.673950000000     0.368360000000     0.743380000000    -0.00203555 
H808     H      0.657060000000     0.399550000000     0.648820000000     0.0437586  
H809     H      0.675390000000     0.305170000000     0.679960000000     0.044715   
H810     H      0.561120000000     0.398020000000     0.648350000000     0.0448759  
H811     H      0.668570000000     0.351540000000     0.660240000000     0.0395782  
H812     H      0.544230000000     0.429350000000     0.553660000000     0.0483867  
H813     H      0.549730000000     0.446150000000     0.637050000000     0.0409303  
H814     H      0.550360000000     0.409490000000     0.600110000000     0.0409372  
H815     H      0.584910000000     0.366630000000     0.679870000000     0.0578917  
H816     H      0.667770000000     0.388060000000     0.697160000000     0.0552011  
H817     H      0.572960000000     0.491110000000     0.598390000000     0.0419562  
H818     H      0.814930000000     0.133800000000     0.634130000000     0.0503747  
H819     H      0.903600000000     0.089770000000     0.653000000000     0.0400542  
H820     H      0.903540000000     0.152640000000     0.590360000000     0.0832625  
H821     H      0.770140000000     0.162070000000     0.705390000000     0.0597877  
H822     H      0.947380000000     0.092000000000     0.635530000000     0.0586732  
H823     H      0.814160000000     0.207170000000     0.645030000000     0.0392591  
H824     H      0.813880000000     0.144440000000     0.707820000000     0.0397013  
H825     H      0.784820000000     0.237030000000     0.674230000000     0.0487904  
H826     H      0.932710000000     0.123210000000     0.560490000000    -8.10393e-05
H827     H      0.853100000000     0.112180000000     0.612460000000     0.0443736  
H828     H      0.932890000000     0.060020000000     0.623600000000     0.0442601  
H829     H      0.864550000000     0.184760000000     0.685750000000     0.0455866  
H830     H      0.890690000000     0.081890000000     0.618830000000     0.0399496  
H831     H      0.784520000000     0.173800000000     0.737500000000     0.0541265  
H832     H      0.827000000000     0.215130000000     0.679220000000     0.0411157  
H833     H      0.826830000000     0.178570000000     0.715820000000     0.0410488  
H834     H      0.902720000000     0.163150000000     0.664080000000     0.0575268  
H835     H      0.890770000000     0.118480000000     0.582350000000     0.0553629  
H836     H      0.770340000000     0.205000000000     0.662430000000     0.0489196  
H837     H      0.901560000000     0.381430000000     0.881720000000     0.0497834  
H838     H      0.811740000000     0.405140000000     0.842640000000     0.0402264  
H839     H      0.811870000000     0.342310000000     0.905390000000     0.0885283  
H840     H      0.950710000000     0.449980000000     0.908280000000     0.0414156  
H841     H      0.767550000000     0.389020000000     0.847330000000     0.0605823  
H842     H      0.906410000000     0.392040000000     0.954840000000     0.0442357  
H843     H      0.906540000000     0.454810000000     0.892040000000     0.0375395  
H844     H      0.938030000000     0.419610000000     0.983230000000     0.0582794  
H845     H      0.780460000000     0.313870000000     0.877520000000     0.0113809  
H846     H      0.861560000000     0.361790000000     0.862190000000     0.0481472  
H847     H      0.780150000000     0.377490000000     0.814270000000     0.0453627  
H848     H      0.856640000000     0.435440000000     0.935260000000     0.0497215  
H849     H      0.823170000000     0.370540000000     0.833930000000     0.0420757  
H850     H      0.938180000000     0.483130000000     0.919670000000     0.0484105  
H851     H      0.895000000000     0.426650000000     0.963550000000     0.0544414  
H852     H      0.895080000000     0.463570000000     0.926620000000     0.0436338  
H853     H      0.816630000000     0.415790000000     0.915740000000     0.0592719  
H854     H      0.823170000000     0.333670000000     0.870760000000     0.0681898  
H855     H      0.950620000000     0.408170000000     0.950120000000     0.0423418  
H856     H      0.906470000000     0.149550000000     0.897740000000     0.0450116  
H857     H      0.828020000000     0.155830000000     0.831440000000     0.0401063  
H858     H      0.825920000000     0.216100000000     0.896600000000     0.0844587  
H859     H      0.897260000000     0.054730000000     0.944530000000     0.0439095  
H860     H      0.821690000000     0.200610000000     0.809050000000     0.0587438  
H861     H      0.888840000000     0.140720000000     0.966390000000     0.0398757  
H862     H      0.891210000000     0.080300000000     0.901390000000     0.0374366  
H863     H      0.924430000000     0.116030000000     0.991550000000     0.0523952  
H864     H      0.789580000000     0.241110000000     0.872260000000     0.00217307 
H865     H      0.881630000000     0.181920000000     0.868250000000     0.0573136  
H866     H      0.792390000000     0.180670000000     0.806450000000     0.046268   
H867     H      0.835410000000     0.114580000000     0.929540000000     0.0487033  
H868     H      0.799040000000     0.159590000000     0.852150000000     0.040276   
H869     H      0.927390000000     0.055210000000     0.925850000000     0.047323   
H870     H      0.917890000000     0.137060000000     0.945770000000     0.0423228  
H871     H      0.919230000000     0.101900000000     0.907730000000     0.0401658  
H872     H      0.810580000000     0.146940000000     0.900040000000     0.0441395  
H873     H      0.797870000000     0.194670000000     0.890130000000     0.0564607  
H874     H      0.895250000000     0.095900000000     0.988740000000     0.0438154  
H875     H      0.635550000000     0.429410000000     0.930060000000     0.0523148  
H876     H      0.636600000000     0.391760000000     0.829260000000     0.0464765  
H877     H      0.636500000000     0.328880000000     0.892010000000     0.0838069  
H878     H      0.578300000000     0.492280000000     0.951640000000     0.0719784  
H879     H      0.640070000000     0.346940000000     0.805720000000     0.0907056  
H880     H      0.581650000000     0.406120000000     0.969200000000     0.0388842  
H881     H      0.581870000000     0.469110000000     0.906570000000     0.0437415  
H882     H      0.548120000000     0.432300000000     0.996240000000     0.0488123  
H883     H      0.670190000000     0.302050000000     0.865810000000     0.00237422 
H884     H      0.657050000000     0.397000000000     0.897650000000     0.0499559  
H885     H      0.670050000000     0.365530000000     0.802160000000     0.0628113  
H886     H      0.561210000000     0.400880000000     0.900780000000     0.0456121  
H887     H      0.665840000000     0.385640000000     0.848950000000     0.0450465  
H888     H      0.548460000000     0.496210000000     0.932830000000     0.0660662  
H889     H      0.552430000000     0.412170000000     0.949460000000     0.0420083  
H890     H      0.552550000000     0.449490000000     0.912420000000     0.0416253  
H891     H      0.582700000000     0.368470000000     0.868370000000     0.0597938  
H892     H      0.665760000000     0.348470000000     0.885940000000     0.0648399  
H893     H      0.578060000000     0.450980000000     0.992720000000     0.0435381  
H894     H      0.810910000000     0.400090000000     0.647760000000     0.0449568  
H895     H      0.889450000000     0.466310000000     0.641570000000     0.0394401  
H896     H      0.891410000000     0.401280000000     0.581160000000     0.0834586  
H897     H      0.820200000000     0.353140000000     0.742510000000     0.0435883  
H898     H      0.895820000000     0.488760000000     0.596820000000     0.05845    
H899     H      0.828410000000     0.331430000000     0.656420000000     0.0389801  
H900     H      0.826250000000     0.396290000000     0.716990000000     0.0374622  
H901     H      0.792800000000     0.306290000000     0.681150000000     0.0486309  
H902     H      0.927780000000     0.425580000000     0.556170000000    -0.00158994 
H903     H      0.835770000000     0.429640000000     0.615450000000     0.0574474  
H904     H      0.925120000000     0.491280000000     0.616770000000     0.0441021  
H905     H      0.881950000000     0.368120000000     0.682620000000     0.0484909  
H906     H      0.918400000000     0.445550000000     0.637770000000     0.0390339  
H907     H      0.790090000000     0.371830000000     0.742110000000     0.0476566  
H908     H      0.799400000000     0.352090000000     0.660200000000     0.0413946  
H909     H      0.798190000000     0.390030000000     0.695440000000     0.0402919  
H910     H      0.906810000000     0.397660000000     0.650310000000     0.0435153  
H911     H      0.919490000000     0.407630000000     0.602590000000     0.0551709  
H912     H      0.822050000000     0.308950000000     0.701180000000     0.0434124  
H913     H      0.621170000000     0.613490000000     0.112750000000     0.0454573  
H914     H      0.647640000000     0.711910000000     0.149030000000     0.0407284  
H915     H      0.647390000000     0.649210000000     0.211710000000     0.0845516  
H916     H      0.527800000000     0.629100000000     0.082600000000     0.061466   
H917     H      0.690180000000     0.714690000000     0.168280000000     0.0557245  
H918     H      0.570600000000     0.585720000000     0.148010000000     0.038871   
H919     H      0.570350000000     0.648350000000     0.085270000000     0.0404548  
H920     H      0.545830000000     0.553570000000     0.115510000000     0.046897   
H921     H      0.672300000000     0.681680000000     0.243700000000    -0.00174418 
H922     H      0.655140000000     0.638850000000     0.138200000000     0.0576927  
H923     H      0.672380000000     0.743940000000     0.181690000000     0.0440247  
H924     H      0.562900000000     0.658820000000     0.158740000000     0.0527884  
H925     H      0.632320000000     0.718280000000     0.182330000000     0.0406101  
H926     H      0.545540000000     0.615700000000     0.053300000000     0.0511614  
H927     H      0.585800000000     0.579350000000     0.114660000000     0.0395859  
H928     H      0.585640000000     0.615060000000     0.078870000000     0.0399976  
H929     H      0.596870000000     0.684190000000     0.184190000000     0.0455426  
H930     H      0.632410000000     0.682620000000     0.218110000000     0.0562304  
H931     H      0.528000000000     0.582770000000     0.128970000000     0.0505413  
H932     H      0.584290000000     0.680340000000     0.366490000000     0.0519518  
H933     H      0.577370000000     0.643360000000     0.467040000000     0.0409252  
H934     H      0.578960000000     0.580340000000     0.404510000000     0.0813908  
H935     H      0.643640000000     0.741640000000     0.348410000000     0.0744547  
H936     H      0.572210000000     0.599230000000     0.491200000000     0.0580415  
H937     H      0.639380000000     0.654950000000     0.330390000000     0.0403295  
H938     H      0.638100000000     0.718050000000     0.392840000000     0.0440414  
H939     H      0.674650000000     0.680340000000     0.304970000000     0.0556235  
H940     H      0.543750000000     0.554310000000     0.429240000000    -0.00324549 
H941     H      0.560510000000     0.648850000000     0.397930000000     0.0443504  
H942     H      0.542080000000     0.617820000000     0.492320000000     0.0462932  
H943     H      0.656450000000     0.649460000000     0.399560000000     0.0455389  
H944     H      0.548950000000     0.637490000000     0.445930000000     0.0406094  
H945     H      0.673150000000     0.744150000000     0.368000000000     0.0635434  
H946     H      0.667880000000     0.660660000000     0.351420000000     0.0423217  
H947     H      0.667150000000     0.697700000000     0.387980000000     0.0415816  
H948     H      0.632660000000     0.617980000000     0.431010000000     0.0570274  
H949     H      0.549860000000     0.600520000000     0.409480000000     0.0553209  
H950     H      0.644640000000     0.699160000000     0.306340000000     0.0480285  
H951     H      0.633270000000     0.930930000000     0.117280000000     0.0484775  
H952     H      0.640110000000     0.830480000000     0.154460000000     0.0402634  
H953     H      0.638720000000     0.893100000000     0.217390000000     0.0819435  
H954     H      0.573780000000     0.948890000000     0.055930000000     0.0415194  
H955     H      0.645300000000     0.806390000000     0.198630000000     0.0598081  
H956     H      0.578250000000     0.967150000000     0.142660000000     0.0381711  
H957     H      0.579360000000     0.904560000000     0.079700000000     0.0378065  
H958     H      0.542980000000     0.992550000000     0.117270000000     0.0481647  
H959     H      0.673950000000     0.868360000000     0.243380000000    -0.00203227 
H960     H      0.657060000000     0.899550000000     0.148820000000     0.0437636  
H961     H      0.675390000000     0.805170000000     0.179960000000     0.0446982  
H962     H      0.561120000000     0.898020000000     0.148350000000     0.0448631  
H963     H      0.668570000000     0.851540000000     0.160240000000     0.039575   
H964     H      0.544230000000     0.929350000000     0.053660000000     0.0483611  
H965     H      0.549730000000     0.946150000000     0.137040000000     0.0409623  
H966     H      0.550360000000     0.909490000000     0.100110000000     0.0409193  
H967     H      0.584910000000     0.866630000000     0.179860000000     0.0579141  
H968     H      0.667770000000     0.888060000000     0.197160000000     0.0552055  
H969     H      0.572960000000     0.991110000000     0.098390000000     0.0419716  
H970     H      0.814930000000     0.633800000000     0.134130000000     0.0503768  
H971     H      0.903600000000     0.589770000000     0.153010000000     0.0400549  
H972     H      0.903540000000     0.652640000000     0.090360000000     0.0832463  
H973     H      0.770140000000     0.662060000000     0.205390000000     0.0597694  
H974     H      0.947380000000     0.592000000000     0.135530000000     0.0586515  
H975     H      0.814160000000     0.707170000000     0.145030000000     0.0392164  
H976     H      0.813880000000     0.644440000000     0.207820000000     0.0397108  
H977     H      0.784820000000     0.737030000000     0.174230000000     0.0487955  
H978     H      0.932710000000     0.623210000000     0.060490000000    -0.000105538
H979     H      0.853100000000     0.612180000000     0.112460000000     0.0443697  
H980     H      0.932890000000     0.560020000000     0.123600000000     0.0442524  
H981     H      0.864550000000     0.684760000000     0.185750000000     0.0455845  
H982     H      0.890690000000     0.581890000000     0.118830000000     0.0399574  
H983     H      0.784520000000     0.673800000000     0.237500000000     0.0541192  
H984     H      0.827000000000     0.715130000000     0.179220000000     0.041077   
H985     H      0.826830000000     0.678570000000     0.215820000000     0.0410543  
H986     H      0.902720000000     0.663150000000     0.164080000000     0.057528   
H987     H      0.890770000000     0.618480000000     0.082350000000     0.0553471  
H988     H      0.770340000000     0.705000000000     0.162430000000     0.0489242  
H989     H      0.901560000000     0.881430000000     0.381720000000     0.0497929  
H990     H      0.811740000000     0.905140000000     0.342640000000     0.0402356  
H991     H      0.811870000000     0.842310000000     0.405390000000     0.0885204  
H992     H      0.950710000000     0.949980000000     0.408280000000     0.0414656  
H993     H      0.767550000000     0.889020000000     0.347330000000     0.0605843  
H994     H      0.906410000000     0.892040000000     0.454840000000     0.0442182  
H995     H      0.906540000000     0.954820000000     0.392040000000     0.0375333  
H996     H      0.938030000000     0.919610000000     0.483230000000     0.0582492  
H997     H      0.780460000000     0.813870000000     0.377510000000     0.0113559  
H998     H      0.861560000000     0.861790000000     0.362190000000     0.0481445  
H999     H      0.780150000000     0.877490000000     0.314270000000     0.045364   
H1000    H      0.856640000000     0.935440000000     0.435260000000     0.0497156  
H1001    H      0.823170000000     0.870540000000     0.333930000000     0.0420793  
H1002    H      0.938180000000     0.983130000000     0.419670000000     0.0484756  
H1003    H      0.895000000000     0.926650000000     0.463550000000     0.054428   
H1004    H      0.895080000000     0.963570000000     0.426620000000     0.0436311  
H1005    H      0.816630000000     0.915790000000     0.415740000000     0.0592741  
H1006    H      0.823170000000     0.833670000000     0.370760000000     0.0681905  
H1007    H      0.950620000000     0.908170000000     0.450120000000     0.0423314  
H1008    H      0.906470000000     0.649550000000     0.397740000000     0.0450193  
H1009    H      0.828020000000     0.655830000000     0.331440000000     0.040118   
H1010    H      0.825920000000     0.716100000000     0.396600000000     0.0844461  
H1011    H      0.897260000000     0.554730000000     0.444530000000     0.0439282  
H1012    H      0.821690000000     0.700610000000     0.309050000000     0.0587394  
H1013    H      0.888840000000     0.640720000000     0.466390000000     0.039857   
H1014    H      0.891210000000     0.580300000000     0.401390000000     0.0374515  
H1015    H      0.924430000000     0.616030000000     0.491550000000     0.0523648  
H1016    H      0.789580000000     0.741110000000     0.372260000000     0.00218226 
H1017    H      0.881630000000     0.681920000000     0.368240000000     0.0572894  
H1018    H      0.792390000000     0.680670000000     0.306450000000     0.0462638  
H1019    H      0.835410000000     0.614580000000     0.429540000000     0.048702   
H1020    H      0.799040000000     0.659590000000     0.352150000000     0.0402822  
H1021    H      0.927390000000     0.555210000000     0.425860000000     0.0473622  
H1022    H      0.917890000000     0.637060000000     0.445770000000     0.0423154  
H1023    H      0.919230000000     0.601890000000     0.407730000000     0.0401768  
H1024    H      0.810580000000     0.646940000000     0.400040000000     0.0441389  
H1025    H      0.797870000000     0.694670000000     0.390130000000     0.0564482  
H1026    H      0.895250000000     0.595900000000     0.488740000000     0.0437945  
H1027    H      0.635550000000     0.929410000000     0.430070000000     0.0522931  
H1028    H      0.636600000000     0.891760000000     0.329260000000     0.0464837  
H1029    H      0.636500000000     0.828880000000     0.392010000000     0.0837989  
H1030    H      0.578300000000     0.992280000000     0.451630000000     0.0720052  
H1031    H      0.640070000000     0.846940000000     0.305720000000     0.0907073  
H1032    H      0.581650000000     0.906120000000     0.469210000000     0.0388551  
H1033    H      0.581870000000     0.969110000000     0.406570000000     0.0437625  
H1034    H      0.548120000000     0.932300000000     0.496240000000     0.0487735  
H1035    H      0.670190000000     0.802050000000     0.365810000000     0.00236971 
H1036    H      0.657050000000     0.897010000000     0.397650000000     0.0499593  
H1037    H      0.670050000000     0.865530000000     0.302160000000     0.0628146  
H1038    H      0.561210000000     0.900880000000     0.400780000000     0.0456132  
H1039    H      0.665840000000     0.885640000000     0.348950000000     0.0450509  
H1040    H      0.548460000000     0.996210000000     0.432830000000     0.0661099  
H1041    H      0.552430000000     0.912180000000     0.449460000000     0.0420071  
H1042    H      0.552550000000     0.949490000000     0.412420000000     0.041635   
H1043    H      0.582700000000     0.868470000000     0.368370000000     0.059769   
H1044    H      0.665760000000     0.848470000000     0.385940000000     0.0648364  
H1045    H      0.578060000000     0.950980000000     0.492720000000     0.0435311  
H1046    H      0.810910000000     0.900090000000     0.147760000000     0.0449451  
H1047    H      0.889450000000     0.966310000000     0.141570000000     0.039454   
H1048    H      0.891410000000     0.901280000000     0.081160000000     0.0834455  
H1049    H      0.820200000000     0.853140000000     0.242510000000     0.0435833  
H1050    H      0.895820000000     0.988760000000     0.096820000000     0.0584832  
H1051    H      0.828410000000     0.831430000000     0.156420000000     0.0389722  
H1052    H      0.826250000000     0.896290000000     0.216990000000     0.0374716  
H1053    H      0.792800000000     0.806290000000     0.181150000000     0.0486267  
H1054    H      0.927780000000     0.925580000000     0.056170000000    -0.00162897 
H1055    H      0.835770000000     0.929630000000     0.115450000000     0.0574737  
H1056    H      0.925120000000     0.991280000000     0.116770000000     0.044135   
H1057    H      0.881950000000     0.868120000000     0.182620000000     0.0484901  
H1058    H      0.918400000000     0.945550000000     0.137770000000     0.039035   
H1059    H      0.790090000000     0.871840000000     0.242110000000     0.04764    
H1060    H      0.799400000000     0.852090000000     0.160200000000     0.041389   
H1061    H      0.798190000000     0.890030000000     0.195440000000     0.0402987  
H1062    H      0.906810000000     0.897660000000     0.150310000000     0.0435252  
H1063    H      0.919490000000     0.907630000000     0.102590000000     0.0551663  
H1064    H      0.822050000000     0.808950000000     0.201180000000     0.0434113  
H1065    H      0.621170000000     0.613490000000     0.612750000000     0.0454673  
H1066    H      0.647640000000     0.711910000000     0.649030000000     0.0407378  
H1067    H      0.647390000000     0.649210000000     0.711710000000     0.0845524  
H1068    H      0.527800000000     0.629100000000     0.582600000000     0.0614493  
H1069    H      0.690180000000     0.714690000000     0.668280000000     0.0557284  
H1070    H      0.570600000000     0.585720000000     0.648010000000     0.038872   
H1071    H      0.570350000000     0.648350000000     0.585280000000     0.0404967  
H1072    H      0.545830000000     0.553570000000     0.615510000000     0.0468984  
H1073    H      0.672300000000     0.681680000000     0.743700000000    -0.00174777 
H1074    H      0.655140000000     0.638850000000     0.638200000000     0.0577005  
H1075    H      0.672380000000     0.743940000000     0.681690000000     0.0440241  
H1076    H      0.562900000000     0.658820000000     0.658730000000     0.0528     
H1077    H      0.632320000000     0.718280000000     0.682330000000     0.0406121  
H1078    H      0.545540000000     0.615700000000     0.553300000000     0.0511675  
H1079    H      0.585800000000     0.579350000000     0.614660000000     0.0395927  
H1080    H      0.585640000000     0.615060000000     0.578880000000     0.0400435  
H1081    H      0.596870000000     0.684190000000     0.684190000000     0.0455415  
H1082    H      0.632410000000     0.682620000000     0.718110000000     0.0562302  
H1083    H      0.528000000000     0.582770000000     0.628970000000     0.0505377  
H1084    H      0.584290000000     0.680340000000     0.866490000000     0.051953   
H1085    H      0.577370000000     0.643360000000     0.967040000000     0.0409482  
H1086    H      0.578960000000     0.580340000000     0.904510000000     0.0813918  
H1087    H      0.643640000000     0.741640000000     0.848410000000     0.0744357  
H1088    H      0.572210000000     0.599230000000     0.991200000000     0.058072   
H1089    H      0.639380000000     0.654950000000     0.830390000000     0.04032    
H1090    H      0.638100000000     0.718050000000     0.892840000000     0.0440477  
H1091    H      0.674650000000     0.680340000000     0.804970000000     0.0556575  
H1092    H      0.543750000000     0.554310000000     0.929240000000    -0.00324535 
H1093    H      0.560510000000     0.648850000000     0.897930000000     0.0443542  
H1094    H      0.542080000000     0.617820000000     0.992320000000     0.0463223  
H1095    H      0.656450000000     0.649460000000     0.899560000000     0.0455452  
H1096    H      0.548950000000     0.637490000000     0.945940000000     0.0406254  
H1097    H      0.673150000000     0.744150000000     0.868000000000     0.0635242  
H1098    H      0.667880000000     0.660660000000     0.851420000000     0.0423161  
H1099    H      0.667150000000     0.697700000000     0.887990000000     0.041577   
H1100    H      0.632660000000     0.617980000000     0.931010000000     0.0570396  
H1101    H      0.549860000000     0.600520000000     0.909480000000     0.0553219  
H1102    H      0.644640000000     0.699160000000     0.806340000000     0.0480609  
H1103    H      0.633270000000     0.930930000000     0.617280000000     0.0484965  
H1104    H      0.640110000000     0.830480000000     0.654460000000     0.0402719  
H1105    H      0.638720000000     0.893100000000     0.717390000000     0.0819426  
H1106    H      0.573780000000     0.948890000000     0.555930000000     0.0415471  
H1107    H      0.645300000000     0.806390000000     0.698630000000     0.0598085  
H1108    H      0.578250000000     0.967150000000     0.642660000000     0.0381565  
H1109    H      0.579360000000     0.904560000000     0.579700000000     0.0378315  
H1110    H      0.542980000000     0.992550000000     0.617270000000     0.0481706  
H1111    H      0.673950000000     0.868360000000     0.743380000000    -0.0020324  
H1112    H      0.657060000000     0.899550000000     0.648820000000     0.0437642  
H1113    H      0.675390000000     0.805170000000     0.679960000000     0.0447024  
H1114    H      0.561120000000     0.898020000000     0.648350000000     0.044878   
H1115    H      0.668570000000     0.851540000000     0.660240000000     0.0395819  
H1116    H      0.544230000000     0.929350000000     0.553660000000     0.0483869  
H1117    H      0.549730000000     0.946150000000     0.637050000000     0.0409364  
H1118    H      0.550360000000     0.909490000000     0.600110000000     0.0409363  
H1119    H      0.584910000000     0.866630000000     0.679870000000     0.057893   
H1120    H      0.667770000000     0.888060000000     0.697160000000     0.0552074  
H1121    H      0.572960000000     0.991110000000     0.598390000000     0.0419856  
H1122    H      0.814930000000     0.633800000000     0.634130000000     0.0503863  
H1123    H      0.903600000000     0.589770000000     0.653000000000     0.0400674  
H1124    H      0.903540000000     0.652640000000     0.590360000000     0.0832626  
H1125    H      0.770140000000     0.662060000000     0.705390000000     0.0597719  
H1126    H      0.947380000000     0.592000000000     0.635530000000     0.0586811  
H1127    H      0.814160000000     0.707170000000     0.645030000000     0.0392262  
H1128    H      0.813880000000     0.644440000000     0.707820000000     0.0397111  
H1129    H      0.784820000000     0.737030000000     0.674230000000     0.0487998  
H1130    H      0.932710000000     0.623210000000     0.560490000000    -8.01367e-05
H1131    H      0.853100000000     0.612180000000     0.612460000000     0.0443808  
H1132    H      0.932890000000     0.560020000000     0.623600000000     0.0442852  
H1133    H      0.864550000000     0.684760000000     0.685750000000     0.0455852  
H1134    H      0.890690000000     0.581890000000     0.618830000000     0.0399645  
H1135    H      0.784520000000     0.673800000000     0.737500000000     0.0541188  
H1136    H      0.827000000000     0.715130000000     0.679220000000     0.041079   
H1137    H      0.826830000000     0.678570000000     0.715820000000     0.0410535  
H1138    H      0.902720000000     0.663150000000     0.664080000000     0.0575297  
H1139    H      0.890770000000     0.618480000000     0.582350000000     0.055368   
H1140    H      0.770340000000     0.705000000000     0.662430000000     0.0489315  
H1141    H      0.901560000000     0.881430000000     0.881720000000     0.0497908  
H1142    H      0.811740000000     0.905140000000     0.842640000000     0.040236   
H1143    H      0.811870000000     0.842310000000     0.905390000000     0.088529   
H1144    H      0.950710000000     0.949980000000     0.908280000000     0.0414277  
H1145    H      0.767550000000     0.889020000000     0.847330000000     0.0605867  
H1146    H      0.906410000000     0.892040000000     0.954840000000     0.0442352  
H1147    H      0.906540000000     0.954820000000     0.892040000000     0.0375447  
H1148    H      0.938030000000     0.919610000000     0.983230000000     0.0582797  
H1149    H      0.780460000000     0.813870000000     0.877520000000     0.0113764  
H1150    H      0.861560000000     0.861790000000     0.862190000000     0.0481465  
H1151    H      0.780150000000     0.877490000000     0.814270000000     0.0453639  
H1152    H      0.856640000000     0.935440000000     0.935260000000     0.0497302  
H1153    H      0.823170000000     0.870540000000     0.833930000000     0.0420786  
H1154    H      0.938180000000     0.983130000000     0.919670000000     0.0484393  
H1155    H      0.895000000000     0.926650000000     0.963550000000     0.0544481  
H1156    H      0.895080000000     0.963570000000     0.926620000000     0.0436478  
H1157    H      0.816630000000     0.915790000000     0.915740000000     0.0592824  
H1158    H      0.823170000000     0.833670000000     0.870760000000     0.0681913  
H1159    H      0.950620000000     0.908170000000     0.950120000000     0.0423411  
H1160    H      0.906470000000     0.649550000000     0.897740000000     0.0450146  
H1161    H      0.828020000000     0.655830000000     0.831440000000     0.0401124  
H1162    H      0.825920000000     0.716100000000     0.896600000000     0.0844583  
H1163    H      0.897260000000     0.554730000000     0.944530000000     0.0439319  
H1164    H      0.821690000000     0.700610000000     0.809050000000     0.0587446  
H1165    H      0.888840000000     0.640720000000     0.966390000000     0.0398766  
H1166    H      0.891210000000     0.580300000000     0.901390000000     0.0374551  
H1167    H      0.924430000000     0.616030000000     0.991550000000     0.052396   
H1168    H      0.789580000000     0.741110000000     0.872260000000     0.00217227 
H1169    H      0.881630000000     0.681920000000     0.868250000000     0.0573144  
H1170    H      0.792390000000     0.680670000000     0.806450000000     0.0462711  
H1171    H      0.835410000000     0.614580000000     0.929540000000     0.048713   
H1172    H      0.799040000000     0.659590000000     0.852150000000     0.0402812  
H1173    H      0.927390000000     0.555210000000     0.925850000000     0.0473425  
H1174    H      0.917890000000     0.637060000000     0.945770000000     0.0423234  
H1175    H      0.919230000000     0.601890000000     0.907730000000     0.0401795  
H1176    H      0.810580000000     0.646940000000     0.900040000000     0.0441441  
H1177    H      0.797870000000     0.694670000000     0.890130000000     0.0564619  
H1178    H      0.895250000000     0.595900000000     0.988740000000     0.0438241  
H1179    H      0.635550000000     0.929410000000     0.930060000000     0.0523251  
H1180    H      0.636600000000     0.891760000000     0.829260000000     0.0464838  
H1181    H      0.636500000000     0.828880000000     0.892010000000     0.0838068  
H1182    H      0.578300000000     0.992280000000     0.951640000000     0.0720128  
H1183    H      0.640070000000     0.846940000000     0.805720000000     0.0907066  
H1184    H      0.581650000000     0.906120000000     0.969200000000     0.0388912  
H1185    H      0.581870000000     0.969110000000     0.906570000000     0.0437663  
H1186    H      0.548120000000     0.932300000000     0.996240000000     0.0488187  
H1187    H      0.670190000000     0.802050000000     0.865810000000     0.00237341 
H1188    H      0.657050000000     0.897010000000     0.897650000000     0.0499623  
H1189    H      0.670050000000     0.865530000000     0.802160000000     0.0628143  
H1190    H      0.561210000000     0.900880000000     0.900780000000     0.045614   
H1191    H      0.665840000000     0.885640000000     0.848950000000     0.0450518  
H1192    H      0.548460000000     0.996210000000     0.932830000000     0.0661049  
H1193    H      0.552430000000     0.912180000000     0.949460000000     0.0420215  
H1194    H      0.552550000000     0.949490000000     0.912420000000     0.0416358  
H1195    H      0.582700000000     0.868470000000     0.868370000000     0.0597955  
H1196    H      0.665760000000     0.848470000000     0.885940000000     0.0648423  
H1197    H      0.578060000000     0.950980000000     0.992720000000     0.0435611  
H1198    H      0.810910000000     0.900090000000     0.647760000000     0.0449559  
H1199    H      0.889450000000     0.966310000000     0.641570000000     0.0394594  
H1200    H      0.891410000000     0.901280000000     0.581160000000     0.0834585  
H1201    H      0.820200000000     0.853140000000     0.742510000000     0.0435827  
H1202    H      0.895820000000     0.988760000000     0.596820000000     0.0584777  
H1203    H      0.828410000000     0.831430000000     0.656420000000     0.03898    
H1204    H      0.826250000000     0.896290000000     0.716990000000     0.0374734  
H1205    H      0.792800000000     0.806290000000     0.681150000000     0.0486304  
H1206    H      0.927780000000     0.925580000000     0.556170000000    -0.00159408 
H1207    H      0.835770000000     0.929630000000     0.615450000000     0.0574819  
H1208    H      0.925120000000     0.991280000000     0.616770000000     0.0441248  
H1209    H      0.881950000000     0.868120000000     0.682620000000     0.0484904  
H1210    H      0.918400000000     0.945550000000     0.637770000000     0.0390406  
H1211    H      0.790090000000     0.871840000000     0.742110000000     0.04764    
H1212    H      0.799400000000     0.852090000000     0.660200000000     0.0413962  
H1213    H      0.798190000000     0.890030000000     0.695440000000     0.0403012  
H1214    H      0.906810000000     0.897660000000     0.650310000000     0.0435201  
H1215    H      0.919490000000     0.907630000000     0.602590000000     0.0551688  
H1216    H      0.822050000000     0.808950000000     0.701180000000     0.0434117  
N1       N      0.180860000000     0.211300000000     0.211260000000    -0.189279   
N2       N      0.149130000000     0.177630000000     0.177440000000    -0.0881005  
N3       N      0.068910000000     0.119960000000     0.119560000000    -0.110833   
N4       N      0.037140000000     0.086130000000     0.085950000000    -0.159292   
N5       N      0.043410000000     0.081850000000     0.465000000000    -0.189465   
N6       N      0.081730000000     0.112120000000     0.435610000000    -0.0880843  
N7       N      0.135230000000     0.186180000000     0.361870000000    -0.111818   
N8       N      0.173670000000     0.216220000000     0.332430000000    -0.158102   
N9       N      0.174180000000     0.332550000000     0.215900000000    -0.18916    
N10      N      0.135850000000     0.361960000000     0.185660000000    -0.0877666  
N11      N      0.082330000000     0.435600000000     0.111490000000    -0.11279    
N12      N      0.043870000000     0.465020000000     0.081440000000    -0.162114   
N13      N      0.438830000000     0.091890000000     0.092240000000    -0.189641   
N14      N      0.403820000000     0.124010000000     0.124500000000    -0.0879807  
N15      N      0.313840000000     0.173010000000     0.173640000000    -0.111794   
N16      N      0.278840000000     0.205300000000     0.205720000000    -0.159216   
N17      N      0.275120000000     0.345540000000     0.345840000000    -0.188283   
N18      N      0.312040000000     0.376420000000     0.376710000000    -0.0873915  
N19      N      0.406150000000     0.420770000000     0.420770000000    -0.112367   
N20      N      0.443030000000     0.451630000000     0.451720000000    -0.161909   
N21      N      0.291720000000     0.215610000000     0.335180000000    -0.191077   
N22      N      0.330590000000     0.186040000000     0.364080000000    -0.0882338  
N23      N      0.386460000000     0.110490000000     0.433740000000    -0.112806   
N24      N      0.425420000000     0.081160000000     0.462740000000    -0.163866   
N25      N      0.170260000000     0.330160000000     0.330430000000    -0.184225   
N26      N      0.133210000000     0.360900000000     0.361210000000    -0.086805   
N27      N      0.085050000000     0.436960000000     0.437240000000    -0.11207    
N28      N      0.047880000000     0.467610000000     0.467920000000    -0.158474   
N29      N      0.425750000000     0.462590000000     0.081780000000    -0.191754   
N30      N      0.386820000000     0.433730000000     0.111300000000    -0.0881945  
N31      N      0.330910000000     0.363990000000     0.186730000000    -0.112787   
N32      N      0.291990000000     0.334980000000     0.216120000000    -0.164227   
N33      N      0.180860000000     0.211300000000     0.711260000000    -0.189317   
N34      N      0.149130000000     0.177630000000     0.677440000000    -0.0880977  
N35      N      0.068910000000     0.119960000000     0.619560000000    -0.110827   
N36      N      0.037140000000     0.086130000000     0.585950000000    -0.159304   
N37      N      0.043410000000     0.081850000000     0.965000000000    -0.189458   
N38      N      0.081730000000     0.112120000000     0.935610000000    -0.0880778  
N39      N      0.135230000000     0.186180000000     0.861870000000    -0.111821   
N40      N      0.173670000000     0.216220000000     0.832430000000    -0.158093   
N41      N      0.174180000000     0.332550000000     0.715900000000    -0.18916    
N42      N      0.135850000000     0.361960000000     0.685660000000    -0.0877626  
N43      N      0.082330000000     0.435600000000     0.611500000000    -0.112809   
N44      N      0.043870000000     0.465020000000     0.581440000000    -0.162109   
N45      N      0.438830000000     0.091890000000     0.592240000000    -0.18966    
N46      N      0.403820000000     0.124010000000     0.624500000000    -0.0879782  
N47      N      0.313840000000     0.173010000000     0.673640000000    -0.111792   
N48      N      0.278840000000     0.205300000000     0.705720000000    -0.159216   
N49      N      0.275120000000     0.345540000000     0.845840000000    -0.188281   
N50      N      0.312040000000     0.376420000000     0.876710000000    -0.0873901  
N51      N      0.406150000000     0.420770000000     0.920770000000    -0.112366   
N52      N      0.443030000000     0.451630000000     0.951720000000    -0.161924   
N53      N      0.291720000000     0.215610000000     0.835190000000    -0.191077   
N54      N      0.330590000000     0.186040000000     0.864080000000    -0.0882447  
N55      N      0.386460000000     0.110490000000     0.933740000000    -0.1128     
N56      N      0.425420000000     0.081160000000     0.962740000000    -0.163862   
N57      N      0.170260000000     0.330160000000     0.830430000000    -0.184225   
N58      N      0.133210000000     0.360900000000     0.861210000000    -0.0868066  
N59      N      0.085050000000     0.436960000000     0.937240000000    -0.112065   
N60      N      0.047880000000     0.467610000000     0.967920000000    -0.158498   
N61      N      0.425750000000     0.462590000000     0.581790000000    -0.191703   
N62      N      0.386820000000     0.433730000000     0.611300000000    -0.0881879  
N63      N      0.330910000000     0.363990000000     0.686730000000    -0.112776   
N64      N      0.291990000000     0.334980000000     0.716120000000    -0.164227   
N65      N      0.180860000000     0.711300000000     0.211260000000    -0.189252   
N66      N      0.149130000000     0.677630000000     0.177440000000    -0.0880759  
N67      N      0.068910000000     0.619960000000     0.119560000000    -0.110836   
N68      N      0.037140000000     0.586130000000     0.085950000000    -0.159288   
N69      N      0.043410000000     0.581850000000     0.465000000000    -0.189479   
N70      N      0.081730000000     0.612120000000     0.435610000000    -0.08807    
N71      N      0.135230000000     0.686180000000     0.361870000000    -0.111813   
N72      N      0.173670000000     0.716220000000     0.332430000000    -0.158115   
N73      N      0.174180000000     0.832550000000     0.215900000000    -0.189165   
N74      N      0.135850000000     0.861960000000     0.185660000000    -0.0877633  
N75      N      0.082330000000     0.935600000000     0.111490000000    -0.112787   
N76      N      0.043870000000     0.965020000000     0.081440000000    -0.162107   
N77      N      0.438830000000     0.591890000000     0.092240000000    -0.189638   
N78      N      0.403820000000     0.624010000000     0.124500000000    -0.0879799  
N79      N      0.313840000000     0.673010000000     0.173640000000    -0.111798   
N80      N      0.278840000000     0.705300000000     0.205720000000    -0.159215   
N81      N      0.275120000000     0.845540000000     0.345840000000    -0.188328   
N82      N      0.312040000000     0.876420000000     0.376710000000    -0.0873892  
N83      N      0.406150000000     0.920770000000     0.420770000000    -0.112361   
N84      N      0.443030000000     0.951630000000     0.451720000000    -0.161903   
N85      N      0.291720000000     0.715610000000     0.335180000000    -0.191077   
N86      N      0.330590000000     0.686040000000     0.364080000000    -0.0882334  
N87      N      0.386460000000     0.610490000000     0.433740000000    -0.1128     
N88      N      0.425420000000     0.581160000000     0.462740000000    -0.163863   
N89      N      0.170260000000     0.830160000000     0.330430000000    -0.184225   
N90      N      0.133210000000     0.860900000000     0.361210000000    -0.0868044  
N91      N      0.085050000000     0.936960000000     0.437240000000    -0.112064   
N92      N      0.047880000000     0.967620000000     0.467920000000    -0.158521   
N93      N      0.425750000000     0.962590000000     0.081780000000    -0.191777   
N94      N      0.386820000000     0.933730000000     0.111300000000    -0.0881941  
N95      N      0.330910000000     0.863990000000     0.186730000000    -0.112783   
N96      N      0.291990000000     0.834980000000     0.216120000000    -0.16423    
N97      N      0.180860000000     0.711300000000     0.711260000000    -0.189289   
N98      N      0.149130000000     0.677630000000     0.677440000000    -0.088073   
N99      N      0.068910000000     0.619960000000     0.619560000000    -0.11083    
N100     N      0.037140000000     0.586130000000     0.585950000000    -0.1593     
N101     N      0.043410000000     0.581850000000     0.965000000000    -0.189473   
N102     N      0.081730000000     0.612120000000     0.935610000000    -0.0880635  
N103     N      0.135230000000     0.686180000000     0.861870000000    -0.111817   
N104     N      0.173670000000     0.716220000000     0.832430000000    -0.158107   
N105     N      0.174180000000     0.832550000000     0.715900000000    -0.189165   
N106     N      0.135850000000     0.861960000000     0.685660000000    -0.0877594  
N107     N      0.082330000000     0.935600000000     0.611500000000    -0.112807   
N108     N      0.043870000000     0.965020000000     0.581440000000    -0.162102   
N109     N      0.438830000000     0.591890000000     0.592240000000    -0.189657   
N110     N      0.403820000000     0.624010000000     0.624500000000    -0.0879774  
N111     N      0.313840000000     0.673010000000     0.673640000000    -0.111796   
N112     N      0.278840000000     0.705300000000     0.705720000000    -0.159214   
N113     N      0.275120000000     0.845540000000     0.845840000000    -0.188326   
N114     N      0.312040000000     0.876420000000     0.876710000000    -0.0873878  
N115     N      0.406150000000     0.920770000000     0.920770000000    -0.112361   
N116     N      0.443030000000     0.951630000000     0.951720000000    -0.161918   
N117     N      0.291720000000     0.715610000000     0.835190000000    -0.191077   
N118     N      0.330590000000     0.686040000000     0.864080000000    -0.0882442  
N119     N      0.386460000000     0.610490000000     0.933740000000    -0.112794   
N120     N      0.425420000000     0.581160000000     0.962740000000    -0.163859   
N121     N      0.170260000000     0.830160000000     0.830430000000    -0.184225   
N122     N      0.133210000000     0.860900000000     0.861210000000    -0.086806   
N123     N      0.085050000000     0.936960000000     0.937240000000    -0.112059   
N124     N      0.047880000000     0.967620000000     0.967920000000    -0.158545   
N125     N      0.425750000000     0.962590000000     0.581790000000    -0.191726   
N126     N      0.386820000000     0.933730000000     0.611300000000    -0.0881874  
N127     N      0.330910000000     0.863990000000     0.686730000000    -0.112772   
N128     N      0.291990000000     0.834980000000     0.716120000000    -0.16423    
N129     N      0.680860000000     0.211300000000     0.211260000000    -0.189285   
N130     N      0.649130000000     0.177630000000     0.177440000000    -0.0881018  
N131     N      0.568910000000     0.119960000000     0.119560000000    -0.110853   
N132     N      0.537140000000     0.086130000000     0.085950000000    -0.159347   
N133     N      0.543410000000     0.081850000000     0.465000000000    -0.189516   
N134     N      0.581730000000     0.112120000000     0.435610000000    -0.0880787  
N135     N      0.635230000000     0.186180000000     0.361870000000    -0.111826   
N136     N      0.673670000000     0.216220000000     0.332430000000    -0.158102   
N137     N      0.674180000000     0.332550000000     0.215900000000    -0.18916    
N138     N      0.635850000000     0.361960000000     0.185660000000    -0.0877748  
N139     N      0.582330000000     0.435600000000     0.111490000000    -0.112794   
N140     N      0.543870000000     0.465020000000     0.081440000000    -0.162159   
N141     N      0.938830000000     0.091890000000     0.092240000000    -0.189658   
N142     N      0.903820000000     0.124010000000     0.124500000000    -0.0879967  
N143     N      0.813840000000     0.173010000000     0.173640000000    -0.111788   
N144     N      0.778840000000     0.205300000000     0.205720000000    -0.159218   
N145     N      0.775120000000     0.345540000000     0.345840000000    -0.188282   
N146     N      0.812040000000     0.376420000000     0.376710000000    -0.0873914  
N147     N      0.906150000000     0.420770000000     0.420770000000    -0.112384   
N148     N      0.943020000000     0.451630000000     0.451720000000    -0.161874   
N149     N      0.791720000000     0.215610000000     0.335180000000    -0.191077   
N150     N      0.830590000000     0.186040000000     0.364080000000    -0.0882404  
N151     N      0.886460000000     0.110490000000     0.433740000000    -0.112808   
N152     N      0.925420000000     0.081160000000     0.462740000000    -0.16387    
N153     N      0.670260000000     0.330160000000     0.330430000000    -0.184225   
N154     N      0.633210000000     0.360900000000     0.361210000000    -0.0868143  
N155     N      0.585050000000     0.436960000000     0.437240000000    -0.112081   
N156     N      0.547880000000     0.467610000000     0.467920000000    -0.158515   
N157     N      0.925750000000     0.462590000000     0.081780000000    -0.191752   
N158     N      0.886820000000     0.433730000000     0.111300000000    -0.0881977  
N159     N      0.830910000000     0.363990000000     0.186730000000    -0.112794   
N160     N      0.791990000000     0.334980000000     0.216120000000    -0.164227   
N161     N      0.680860000000     0.211300000000     0.711260000000    -0.189323   
N162     N      0.649130000000     0.177630000000     0.677440000000    -0.0880989  
N163     N      0.568910000000     0.119960000000     0.619560000000    -0.110847   
N164     N      0.537140000000     0.086130000000     0.585950000000    -0.159359   
N165     N      0.543410000000     0.081850000000     0.965000000000    -0.189509   
N166     N      0.581730000000     0.112120000000     0.935610000000    -0.0880722  
N167     N      0.635230000000     0.186180000000     0.861870000000    -0.11183    
N168     N      0.673670000000     0.216220000000     0.832430000000    -0.158093   
N169     N      0.674180000000     0.332550000000     0.715900000000    -0.18916    
N170     N      0.635850000000     0.361960000000     0.685660000000    -0.0877709  
N171     N      0.582330000000     0.435600000000     0.611500000000    -0.112813   
N172     N      0.543870000000     0.465020000000     0.581440000000    -0.162153   
N173     N      0.938830000000     0.091890000000     0.592240000000    -0.189677   
N174     N      0.903820000000     0.124010000000     0.624500000000    -0.0879942  
N175     N      0.813840000000     0.173010000000     0.673640000000    -0.111786   
N176     N      0.778840000000     0.205300000000     0.705720000000    -0.159217   
N177     N      0.775120000000     0.345540000000     0.845840000000    -0.18828    
N178     N      0.812040000000     0.376420000000     0.876710000000    -0.0873901  
N179     N      0.906150000000     0.420770000000     0.920770000000    -0.112383   
N180     N      0.943020000000     0.451630000000     0.951720000000    -0.161888   
N181     N      0.791720000000     0.215610000000     0.835190000000    -0.191077   
N182     N      0.830590000000     0.186040000000     0.864080000000    -0.0882512  
N183     N      0.886460000000     0.110490000000     0.933740000000    -0.112802   
N184     N      0.925420000000     0.081160000000     0.962740000000    -0.163866   
N185     N      0.670260000000     0.330160000000     0.830430000000    -0.184226   
N186     N      0.633210000000     0.360900000000     0.861210000000    -0.0868159  
N187     N      0.585050000000     0.436960000000     0.937240000000    -0.112076   
N188     N      0.547880000000     0.467610000000     0.967920000000    -0.158539   
N189     N      0.925750000000     0.462590000000     0.581790000000    -0.191701   
N190     N      0.886820000000     0.433730000000     0.611300000000    -0.088191   
N191     N      0.830910000000     0.363990000000     0.686730000000    -0.112782   
N192     N      0.791990000000     0.334980000000     0.716120000000    -0.164227   
N193     N      0.680860000000     0.711300000000     0.211260000000    -0.189258   
N194     N      0.649130000000     0.677630000000     0.177440000000    -0.0880771  
N195     N      0.568910000000     0.619960000000     0.119560000000    -0.110856   
N196     N      0.537140000000     0.586130000000     0.085950000000    -0.159343   
N197     N      0.543410000000     0.581850000000     0.465000000000    -0.189531   
N198     N      0.581730000000     0.612120000000     0.435610000000    -0.0880644  
N199     N      0.635230000000     0.686180000000     0.361870000000    -0.111822   
N200     N      0.673670000000     0.716220000000     0.332430000000    -0.158115   
N201     N      0.674180000000     0.832550000000     0.215900000000    -0.189166   
N202     N      0.635850000000     0.861960000000     0.185660000000    -0.0877716  
N203     N      0.582330000000     0.935600000000     0.111490000000    -0.112791   
N204     N      0.543870000000     0.965020000000     0.081440000000    -0.162151   
N205     N      0.938830000000     0.591890000000     0.092240000000    -0.189655   
N206     N      0.903820000000     0.624010000000     0.124500000000    -0.0879959  
N207     N      0.813840000000     0.673010000000     0.173640000000    -0.111792   
N208     N      0.778840000000     0.705300000000     0.205720000000    -0.159216   
N209     N      0.775120000000     0.845540000000     0.345840000000    -0.188327   
N210     N      0.812040000000     0.876420000000     0.376710000000    -0.0873891  
N211     N      0.906150000000     0.920770000000     0.420770000000    -0.112378   
N212     N      0.943020000000     0.951630000000     0.451720000000    -0.161868   
N213     N      0.791720000000     0.715610000000     0.335180000000    -0.191077   
N214     N      0.830590000000     0.686040000000     0.364080000000    -0.08824    
N215     N      0.886460000000     0.610490000000     0.433740000000    -0.112802   
N216     N      0.925420000000     0.581160000000     0.462740000000    -0.163867   
N217     N      0.670260000000     0.830160000000     0.330430000000    -0.184226   
N218     N      0.633210000000     0.860900000000     0.361210000000    -0.0868137  
N219     N      0.585050000000     0.936960000000     0.437240000000    -0.112074   
N220     N      0.547880000000     0.967620000000     0.467920000000    -0.158563   
N221     N      0.925750000000     0.962590000000     0.081780000000    -0.191775   
N222     N      0.886820000000     0.933730000000     0.111300000000    -0.0881972  
N223     N      0.830910000000     0.863990000000     0.186730000000    -0.11279    
N224     N      0.791990000000     0.834980000000     0.216120000000    -0.164231   
N225     N      0.680860000000     0.711300000000     0.711260000000    -0.189295   
N226     N      0.649130000000     0.677630000000     0.677440000000    -0.0880742  
N227     N      0.568910000000     0.619960000000     0.619560000000    -0.11085    
N228     N      0.537140000000     0.586130000000     0.585950000000    -0.159355   
N229     N      0.543410000000     0.581850000000     0.965000000000    -0.189524   
N230     N      0.581730000000     0.612120000000     0.935610000000    -0.0880578  
N231     N      0.635230000000     0.686180000000     0.861870000000    -0.111825   
N232     N      0.673670000000     0.716220000000     0.832430000000    -0.158107   
N233     N      0.674180000000     0.832550000000     0.715900000000    -0.189165   
N234     N      0.635850000000     0.861960000000     0.685660000000    -0.0877676  
N235     N      0.582330000000     0.935600000000     0.611500000000    -0.11281    
N236     N      0.543870000000     0.965020000000     0.581440000000    -0.162146   
N237     N      0.938830000000     0.591890000000     0.592240000000    -0.189674   
N238     N      0.903820000000     0.624010000000     0.624500000000    -0.0879934  
N239     N      0.813840000000     0.673010000000     0.673640000000    -0.11179    
N240     N      0.778840000000     0.705300000000     0.705720000000    -0.159215   
N241     N      0.775120000000     0.845540000000     0.845840000000    -0.188325   
N242     N      0.812040000000     0.876420000000     0.876710000000    -0.0873878  
N243     N      0.906150000000     0.920770000000     0.920770000000    -0.112377   
N244     N      0.943020000000     0.951630000000     0.951720000000    -0.161883   
N245     N      0.791720000000     0.715610000000     0.835190000000    -0.191077   
N246     N      0.830590000000     0.686040000000     0.864080000000    -0.0882508  
N247     N      0.886460000000     0.610490000000     0.933740000000    -0.112796   
N248     N      0.925420000000     0.581160000000     0.962740000000    -0.163862   
N249     N      0.670260000000     0.830160000000     0.830430000000    -0.184226   
N250     N      0.633210000000     0.860900000000     0.861210000000    -0.0868153  
N251     N      0.585050000000     0.936960000000     0.937240000000    -0.112069   
N252     N      0.547880000000     0.967620000000     0.967920000000    -0.158586   
N253     N      0.925750000000     0.962590000000     0.581790000000    -0.191724   
N254     N      0.886820000000     0.933730000000     0.611300000000    -0.0881906  
N255     N      0.830910000000     0.863990000000     0.686730000000    -0.112778   
N256     N      0.791990000000     0.834980000000     0.716120000000    -0.164231   
O1       O      0.455680000000     0.465110000000     0.046560000000    -0.362435   
O2       O      0.454780000000     0.078920000000     0.498350000000    -0.368802   
O3       O      0.460940000000     0.051080000000     0.084270000000    -0.360143   
O4       O      0.463740000000     0.493130000000     0.460320000000    -0.362943   
O5       O      0.460860000000     0.084040000000     0.051360000000    -0.35154    
O6       O      0.463630000000     0.460210000000     0.493290000000    -0.357662   
O7       O      0.455620000000     0.046200000000     0.465240000000    -0.368562   
O8       O      0.455130000000     0.498180000000     0.079330000000    -0.373732   
O9       O      0.015990000000     0.468000000000     0.501170000000    -0.35969    
O10      O      0.011010000000     0.080680000000     0.047700000000    -0.354768   
O11      O      0.013410000000     0.499740000000     0.078980000000    -0.369323   
O12      O      0.013610000000     0.046470000000     0.466600000000    -0.361191   
O13      O      0.012990000000     0.079160000000     0.499750000000    -0.370172   
O14      O      0.013710000000     0.466450000000     0.046430000000    -0.364418   
O15      O      0.016120000000     0.501020000000     0.468320000000    -0.353434   
O16      O      0.011180000000     0.047730000000     0.080650000000    -0.359929   
O17      O      0.472670000000     0.522330000000     0.022510000000    -0.580693   
O18      O      0.262710000000     0.299300000000     0.218500000000    -0.371168   
O19      O      0.261850000000     0.250900000000     0.332600000000    -0.36019    
O20      O      0.254220000000     0.337090000000     0.304410000000    -0.365485   
O21      O      0.256710000000     0.213280000000     0.246520000000    -0.349399   
O22      O      0.254230000000     0.304130000000     0.337330000000    -0.352096   
O23      O      0.256850000000     0.246220000000     0.213570000000    -0.357006   
O24      O      0.262460000000     0.218170000000     0.299480000000    -0.371929   
O25      O      0.261970000000     0.332390000000     0.251250000000    -0.368876   
O26      O      0.206730000000     0.249740000000     0.216830000000    -0.362727   
O27      O      0.201840000000     0.296580000000     0.329740000000    -0.353286   
O28      O      0.204050000000     0.330960000000     0.251200000000    -0.360496   
O29      O      0.204220000000     0.218610000000     0.297800000000    -0.365519   
O30      O      0.203840000000     0.251210000000     0.331040000000    -0.357796   
O31      O      0.204590000000     0.297790000000     0.218530000000    -0.371776   
O32      O      0.206640000000     0.216780000000     0.249790000000    -0.348629   
O33      O      0.201840000000     0.329540000000     0.296830000000    -0.354961   
O34      O      0.244990000000     0.275050000000     0.275250000000    -0.582028   
O35      O      0.455680000000     0.465110000000     0.546560000000    -0.362401   
O36      O      0.454780000000     0.078920000000     0.998350000000    -0.368705   
O37      O      0.460940000000     0.051080000000     0.584270000000    -0.360168   
O38      O      0.463740000000     0.493130000000     0.960320000000    -0.362943   
O39      O      0.460860000000     0.084040000000     0.551360000000    -0.351402   
O40      O      0.463630000000     0.460210000000     0.993290000000    -0.357568   
O41      O      0.455620000000     0.046200000000     0.965240000000    -0.368556   
O42      O      0.455130000000     0.498180000000     0.579330000000    -0.373706   
O43      O      0.015990000000     0.468000000000     0.001170000000    -0.359854   
O44      O      0.011010000000     0.080680000000     0.547700000000    -0.354754   
O45      O      0.013410000000     0.499740000000     0.578980000000    -0.369321   
O46      O      0.013610000000     0.046470000000     0.966600000000    -0.361188   
O47      O      0.012990000000     0.079160000000     0.999750000000    -0.370077   
O48      O      0.013710000000     0.466450000000     0.546430000000    -0.364418   
O49      O      0.016120000000     0.501020000000     0.968320000000    -0.353473   
O50      O      0.011180000000     0.047730000000     0.580650000000    -0.359929   
O51      O      0.472670000000     0.522330000000     0.522510000000    -0.580641   
O52      O      0.262710000000     0.299300000000     0.718500000000    -0.371169   
O53      O      0.261850000000     0.250900000000     0.832600000000    -0.360174   
O54      O      0.254220000000     0.337090000000     0.804410000000    -0.365485   
O55      O      0.256710000000     0.213280000000     0.746520000000    -0.349393   
O56      O      0.254230000000     0.304130000000     0.837330000000    -0.352095   
O57      O      0.256850000000     0.246220000000     0.713570000000    -0.357003   
O58      O      0.262460000000     0.218170000000     0.799480000000    -0.371918   
O59      O      0.261970000000     0.332390000000     0.751250000000    -0.368877   
O60      O      0.206730000000     0.249740000000     0.716830000000    -0.362783   
O61      O      0.201840000000     0.296580000000     0.829740000000    -0.353285   
O62      O      0.204050000000     0.330960000000     0.751200000000    -0.360496   
O63      O      0.204220000000     0.218610000000     0.797800000000    -0.365529   
O64      O      0.203840000000     0.251210000000     0.831040000000    -0.357796   
O65      O      0.204590000000     0.297790000000     0.718530000000    -0.371774   
O66      O      0.206640000000     0.216780000000     0.749780000000    -0.348739   
O67      O      0.201840000000     0.329540000000     0.796830000000    -0.354962   
O68      O      0.244990000000     0.275050000000     0.775250000000    -0.582027   
O69      O      0.455680000000     0.965110000000     0.046560000000    -0.362461   
O70      O      0.454780000000     0.578920000000     0.498350000000    -0.368799   
O71      O      0.460940000000     0.551080000000     0.084270000000    -0.360132   
O72      O      0.463740000000     0.993130000000     0.460320000000    -0.362862   
O73      O      0.460860000000     0.584040000000     0.051360000000    -0.351539   
O74      O      0.463630000000     0.960210000000     0.493290000000    -0.357661   
O75      O      0.455620000000     0.546200000000     0.465240000000    -0.368546   
O76      O      0.455130000000     0.998180000000     0.079330000000    -0.37352    
O77      O      0.015990000000     0.968000000000     0.501170000000    -0.359741   
O78      O      0.011010000000     0.580680000000     0.047700000000    -0.354767   
O79      O      0.013410000000     0.999740000000     0.078980000000    -0.36924    
O80      O      0.013610000000     0.546470000000     0.466600000000    -0.361197   
O81      O      0.012990000000     0.579160000000     0.499750000000    -0.370171   
O82      O      0.013710000000     0.966450000000     0.046430000000    -0.364417   
O83      O      0.016120000000     0.001020000000     0.468320000000    -0.353577   
O84      O      0.011180000000     0.547730000000     0.080650000000    -0.359916   
O85      O      0.472670000000     0.022330000000     0.022510000000    -0.58073    
O86      O      0.262710000000     0.799300000000     0.218500000000    -0.371169   
O87      O      0.261850000000     0.750900000000     0.332600000000    -0.360192   
O88      O      0.254220000000     0.837090000000     0.304410000000    -0.365509   
O89      O      0.256710000000     0.713280000000     0.246520000000    -0.349398   
O90      O      0.254230000000     0.804130000000     0.337330000000    -0.351966   
O91      O      0.256850000000     0.746220000000     0.213570000000    -0.357006   
O92      O      0.262460000000     0.718170000000     0.299480000000    -0.371928   
O93      O      0.261970000000     0.832390000000     0.251250000000    -0.368872   
O94      O      0.206730000000     0.749740000000     0.216830000000    -0.362726   
O95      O      0.201840000000     0.796580000000     0.329740000000    -0.353287   
O96      O      0.204050000000     0.830960000000     0.251200000000    -0.360496   
O97      O      0.204220000000     0.718610000000     0.297800000000    -0.365518   
O98      O      0.203840000000     0.751210000000     0.331040000000    -0.357796   
O99      O      0.204590000000     0.797790000000     0.218530000000    -0.371777   
O100     O      0.206640000000     0.716780000000     0.249790000000    -0.348625   
O101     O      0.201840000000     0.829540000000     0.296830000000    -0.354962   
O102     O      0.244990000000     0.775050000000     0.275250000000    -0.582026   
O103     O      0.455680000000     0.965110000000     0.546560000000    -0.362427   
O104     O      0.454780000000     0.578920000000     0.998350000000    -0.368702   
O105     O      0.460940000000     0.551080000000     0.584270000000    -0.360157   
O106     O      0.463740000000     0.993130000000     0.960320000000    -0.362863   
O107     O      0.460860000000     0.584040000000     0.551360000000    -0.351401   
O108     O      0.463630000000     0.960210000000     0.993290000000    -0.357568   
O109     O      0.455620000000     0.546200000000     0.965240000000    -0.36854    
O110     O      0.455130000000     0.998180000000     0.579330000000    -0.373495   
O111     O      0.015990000000     0.968000000000     0.001170000000    -0.359903   
O112     O      0.011010000000     0.580680000000     0.547700000000    -0.354752   
O113     O      0.013410000000     0.999740000000     0.578980000000    -0.369238   
O114     O      0.013610000000     0.546470000000     0.966600000000    -0.361195   
O115     O      0.012990000000     0.579160000000     0.999750000000    -0.370077   
O116     O      0.013710000000     0.966450000000     0.546430000000    -0.364417   
O117     O      0.016120000000     0.001020000000     0.968320000000    -0.353615   
O118     O      0.011180000000     0.547730000000     0.580650000000    -0.359916   
O119     O      0.472670000000     0.022330000000     0.522510000000    -0.580678   
O120     O      0.262710000000     0.799300000000     0.718500000000    -0.371169   
O121     O      0.261850000000     0.750900000000     0.832600000000    -0.360175   
O122     O      0.254220000000     0.837090000000     0.804410000000    -0.365509   
O123     O      0.256710000000     0.713280000000     0.746520000000    -0.349391   
O124     O      0.254230000000     0.804130000000     0.837330000000    -0.351965   
O125     O      0.256850000000     0.746220000000     0.713570000000    -0.357003   
O126     O      0.262460000000     0.718170000000     0.799480000000    -0.371917   
O127     O      0.261970000000     0.832390000000     0.751250000000    -0.368873   
O128     O      0.206730000000     0.749740000000     0.716830000000    -0.362783   
O129     O      0.201840000000     0.796580000000     0.829740000000    -0.353286   
O130     O      0.204050000000     0.830960000000     0.751200000000    -0.360496   
O131     O      0.204220000000     0.718610000000     0.797800000000    -0.365529   
O132     O      0.203840000000     0.751210000000     0.831040000000    -0.357795   
O133     O      0.204590000000     0.797790000000     0.718530000000    -0.371775   
O134     O      0.206640000000     0.716780000000     0.749780000000    -0.348735   
O135     O      0.201840000000     0.829540000000     0.796830000000    -0.354962   
O136     O      0.244990000000     0.775050000000     0.775250000000    -0.582025   
O137     O      0.955680000000     0.465110000000     0.046560000000    -0.362413   
O138     O      0.954780000000     0.078920000000     0.498350000000    -0.368777   
O139     O      0.960940000000     0.051080000000     0.084270000000    -0.360172   
O140     O      0.963740000000     0.493130000000     0.460320000000    -0.362944   
O141     O      0.960860000000     0.084040000000     0.051360000000    -0.351568   
O142     O      0.963630000000     0.460210000000     0.493290000000    -0.357663   
O143     O      0.955620000000     0.046200000000     0.465240000000    -0.368541   
O144     O      0.955130000000     0.498180000000     0.079330000000    -0.373708   
O145     O      0.515990000000     0.468000000000     0.501170000000    -0.360137   
O146     O      0.511010000000     0.080680000000     0.047700000000    -0.355236   
O147     O      0.513410000000     0.499740000000     0.078980000000    -0.369773   
O148     O      0.513610000000     0.046470000000     0.466600000000    -0.361642   
O149     O      0.512990000000     0.079160000000     0.499750000000    -0.370624   
O150     O      0.513710000000     0.466450000000     0.046430000000    -0.364868   
O151     O      0.516120000000     0.501020000000     0.468320000000    -0.353881   
O152     O      0.511180000000     0.047730000000     0.080650000000    -0.360397   
O153     O      0.972670000000     0.522330000000     0.022510000000    -0.580407   
O154     O      0.762710000000     0.299300000000     0.218500000000    -0.371167   
O155     O      0.761850000000     0.250900000000     0.332600000000    -0.360187   
O156     O      0.754220000000     0.337090000000     0.304410000000    -0.365483   
O157     O      0.756710000000     0.213280000000     0.246520000000    -0.349405   
O158     O      0.754230000000     0.304130000000     0.337330000000    -0.352094   
O159     O      0.756850000000     0.246220000000     0.213570000000    -0.357007   
O160     O      0.762460000000     0.218170000000     0.299480000000    -0.37192    
O161     O      0.761970000000     0.332390000000     0.251250000000    -0.368875   
O162     O      0.706730000000     0.249740000000     0.216830000000    -0.362749   
O163     O      0.701840000000     0.296580000000     0.329740000000    -0.353284   
O164     O      0.704050000000     0.330960000000     0.251200000000    -0.360493   
O165     O      0.704220000000     0.218610000000     0.297800000000    -0.365506   
O166     O      0.703840000000     0.251210000000     0.331040000000    -0.357793   
O167     O      0.704590000000     0.297790000000     0.218530000000    -0.371773   
O168     O      0.706630000000     0.216780000000     0.249790000000    -0.348622   
O169     O      0.701840000000     0.329540000000     0.296830000000    -0.35496    
O170     O      0.744990000000     0.275050000000     0.275250000000    -0.582023   
O171     O      0.955680000000     0.465110000000     0.546560000000    -0.362379   
O172     O      0.954780000000     0.078920000000     0.998350000000    -0.36868    
O173     O      0.960940000000     0.051080000000     0.584270000000    -0.360197   
O174     O      0.963740000000     0.493130000000     0.960320000000    -0.362944   
O175     O      0.960860000000     0.084040000000     0.551360000000    -0.35143    
O176     O      0.963630000000     0.460210000000     0.993290000000    -0.357569   
O177     O      0.955620000000     0.046200000000     0.965240000000    -0.368535   
O178     O      0.955130000000     0.498180000000     0.579330000000    -0.373683   
O179     O      0.515990000000     0.468000000000     0.001170000000    -0.360301   
O180     O      0.511010000000     0.080680000000     0.547700000000    -0.355222   
O181     O      0.513410000000     0.499740000000     0.578980000000    -0.369772   
O182     O      0.513610000000     0.046470000000     0.966600000000    -0.361639   
O183     O      0.512990000000     0.079160000000     0.999750000000    -0.370528   
O184     O      0.513710000000     0.466450000000     0.546430000000    -0.364869   
O185     O      0.516120000000     0.501020000000     0.968320000000    -0.353919   
O186     O      0.511180000000     0.047730000000     0.580650000000    -0.360397   
O187     O      0.972670000000     0.522330000000     0.522510000000    -0.580355   
O188     O      0.762710000000     0.299300000000     0.718500000000    -0.371168   
O189     O      0.761850000000     0.250900000000     0.832600000000    -0.360171   
O190     O      0.754220000000     0.337090000000     0.804410000000    -0.365483   
O191     O      0.756710000000     0.213280000000     0.746520000000    -0.349399   
O192     O      0.754230000000     0.304130000000     0.837330000000    -0.352094   
O193     O      0.756850000000     0.246220000000     0.713570000000    -0.357005   
O194     O      0.762460000000     0.218170000000     0.799480000000    -0.371908   
O195     O      0.761970000000     0.332390000000     0.751250000000    -0.368875   
O196     O      0.706730000000     0.249740000000     0.716830000000    -0.362805   
O197     O      0.701840000000     0.296580000000     0.829740000000    -0.353284   
O198     O      0.704050000000     0.330960000000     0.751200000000    -0.360493   
O199     O      0.704220000000     0.218610000000     0.797800000000    -0.365516   
O200     O      0.703840000000     0.251210000000     0.831040000000    -0.357792   
O201     O      0.704590000000     0.297790000000     0.718530000000    -0.371771   
O202     O      0.706630000000     0.216780000000     0.749780000000    -0.348732   
O203     O      0.701840000000     0.329540000000     0.796830000000    -0.35496    
O204     O      0.744990000000     0.275050000000     0.775250000000    -0.582022   
O205     O      0.955680000000     0.965110000000     0.046560000000    -0.362439   
O206     O      0.954780000000     0.578920000000     0.498350000000    -0.368774   
O207     O      0.960940000000     0.551080000000     0.084270000000    -0.360161   
O208     O      0.963740000000     0.993130000000     0.460320000000    -0.362862   
O209     O      0.960860000000     0.584040000000     0.051360000000    -0.351568   
O210     O      0.963630000000     0.960210000000     0.493290000000    -0.357662   
O211     O      0.955620000000     0.546200000000     0.465240000000    -0.368524   
O212     O      0.955130000000     0.998180000000     0.079330000000    -0.373496   
O213     O      0.515990000000     0.968000000000     0.501170000000    -0.360186   
O214     O      0.511010000000     0.580680000000     0.047700000000    -0.355235   
O215     O      0.513410000000     0.999740000000     0.078980000000    -0.369689   
O216     O      0.513610000000     0.546470000000     0.466600000000    -0.361649   
O217     O      0.512990000000     0.579160000000     0.499750000000    -0.370624   
O218     O      0.513710000000     0.966450000000     0.046430000000    -0.364866   
O219     O      0.516120000000     0.001020000000     0.468320000000    -0.354024   
O220     O      0.511180000000     0.547730000000     0.080650000000    -0.360384   
O221     O      0.972670000000     0.022330000000     0.022510000000    -0.580444   
O222     O      0.762710000000     0.799300000000     0.218500000000    -0.371168   
O223     O      0.761850000000     0.750900000000     0.332600000000    -0.360189   
O224     O      0.754220000000     0.837090000000     0.304410000000    -0.365507   
O225     O      0.756710000000     0.713280000000     0.246520000000    -0.349404   
O226     O      0.754230000000     0.804130000000     0.337330000000    -0.351964   
O227     O      0.756850000000     0.746220000000     0.213570000000    -0.357007   
O228     O      0.762460000000     0.718170000000     0.299480000000    -0.371919   
O229     O      0.761970000000     0.832390000000     0.251250000000    -0.368871   
O230     O      0.706730000000     0.749740000000     0.216830000000    -0.362748   
O231     O      0.701840000000     0.796580000000     0.329740000000    -0.353286   
O232     O      0.704050000000     0.830960000000     0.251200000000    -0.360494   
O233     O      0.704220000000     0.718610000000     0.297800000000    -0.365506   
O234     O      0.703840000000     0.751210000000     0.331040000000    -0.357792   
O235     O      0.704590000000     0.797790000000     0.218530000000    -0.371774   
O236     O      0.706630000000     0.716780000000     0.249790000000    -0.348618   
O237     O      0.701840000000     0.829540000000     0.296830000000    -0.35496    
O238     O      0.744990000000     0.775050000000     0.275250000000    -0.582021   
O239     O      0.955680000000     0.965110000000     0.546560000000    -0.362405   
O240     O      0.954780000000     0.578920000000     0.998350000000    -0.368677   
O241     O      0.960940000000     0.551080000000     0.584270000000    -0.360186   
O242     O      0.963740000000     0.993130000000     0.960320000000    -0.362863   
O243     O      0.960860000000     0.584040000000     0.551360000000    -0.35143    
O244     O      0.963630000000     0.960210000000     0.993290000000    -0.357569   
O245     O      0.955620000000     0.546200000000     0.965240000000    -0.368518   
O246     O      0.955130000000     0.998180000000     0.579330000000    -0.373471   
O247     O      0.515990000000     0.968000000000     0.001170000000    -0.360349   
O248     O      0.511010000000     0.580680000000     0.547700000000    -0.355221   
O249     O      0.513410000000     0.999740000000     0.578980000000    -0.369688   
O250     O      0.513610000000     0.546470000000     0.966600000000    -0.361645   
O251     O      0.512990000000     0.579160000000     0.999750000000    -0.370528   
O252     O      0.513710000000     0.966450000000     0.546430000000    -0.364866   
O253     O      0.516120000000     0.001020000000     0.968320000000    -0.354062   
O254     O      0.511180000000     0.547730000000     0.580650000000    -0.360384   
O255     O      0.972670000000     0.022330000000     0.522510000000    -0.580392   
O256     O      0.762710000000     0.799300000000     0.718500000000    -0.371168   
O257     O      0.761850000000     0.750900000000     0.832600000000    -0.360172   
O258     O      0.754220000000     0.837090000000     0.804410000000    -0.365507   
O259     O      0.756710000000     0.713280000000     0.746520000000    -0.349397   
O260     O      0.754230000000     0.804130000000     0.837330000000    -0.351964   
O261     O      0.756850000000     0.746220000000     0.713570000000    -0.357004   
O262     O      0.762460000000     0.718170000000     0.799480000000    -0.371907   
O263     O      0.761970000000     0.832390000000     0.751250000000    -0.368871   
O264     O      0.706730000000     0.749740000000     0.716830000000    -0.362805   
O265     O      0.701840000000     0.796580000000     0.829740000000    -0.353285   
O266     O      0.704050000000     0.830960000000     0.751200000000    -0.360494   
O267     O      0.704220000000     0.718610000000     0.797800000000    -0.365516   
O268     O      0.703840000000     0.751210000000     0.831040000000    -0.357792   
O269     O      0.704590000000     0.797790000000     0.718530000000    -0.371773   
O270     O      0.706630000000     0.716780000000     0.749780000000    -0.348728   
O271     O      0.701840000000     0.829540000000     0.796830000000    -0.35496    
O272     O      0.744990000000     0.775050000000     0.775250000000    -0.58202    


