data_structure

_audit_creation_method RASPA-1.0
_audit_creation_date 2023-5-25
_audit_author_name 'Poobodin Mano'

_cell_length_a    50.9776
_cell_length_b    48.0375
_cell_length_c    48.3017
_cell_angle_alpha 90
_cell_angle_beta  90
_cell_angle_gamma 90
_cell_volume      118283

_symmetry_cell_setting          triclinic
_symmetry_space_group_name_Hall 'P 1'
_symmetry_space_group_name_H-M  'P 1'
_symmetry_Int_Tables_number     1

_symmetry_equiv_pos_as_xyz 'x,y,z'

loop_
_atom_site_label
_atom_site_type_symbol
_atom_site_fract_x
_atom_site_fract_y
_atom_site_fract_z
_atom_site_charge
C1       C      0.451310000000     0.475350000000     0.062380000000     0.386802   
C2       C      0.448510000000     0.064600000000     0.473300000000     0.38834    
C3       C      0.448670000000     0.067610000000     0.062030000000     0.388358   
C4       C      0.458400000000     0.471120000000     0.469390000000     0.388874   
C5       C      0.029900000000     0.475870000000     0.471770000000     0.395894   
C6       C      0.018720000000     0.074860000000     0.070200000000     0.393898   
C7       C      0.026800000000     0.476170000000     0.067740000000     0.395583   
C8       C      0.017480000000     0.076030000000     0.464800000000     0.393784   
C9       C      0.280450000000     0.315170000000     0.222300000000     0.383954   
C10      C      0.282210000000     0.225580000000     0.312720000000     0.386025   
C11      C      0.273230000000     0.319190000000     0.318610000000     0.391602   
C12      C      0.284190000000     0.227240000000     0.224410000000     0.383759   
C13      C      0.213660000000     0.216040000000     0.214940000000     0.396149   
C14      C      0.203060000000     0.316640000000     0.314260000000     0.393582   
C15      C      0.204570000000     0.317380000000     0.220650000000     0.393723   
C16      C      0.212960000000     0.215010000000     0.319530000000     0.395963   
C17      C      0.166070000000     0.197170000000     0.160610000000    -0.0307296  
C18      C      0.066980000000     0.092370000000     0.124460000000    -0.0292427  
C19      C      0.040910000000     0.119950000000     0.078250000000    -0.00847453 
C20      C      0.039540000000     0.083000000000     0.115720000000    -0.00847021 
C21      C      0.092000000000     0.153770000000     0.150940000000    -0.0541643  
C22      C      0.141600000000     0.135350000000     0.134280000000    -0.0536215  
C23      C      0.094040000000     0.133260000000     0.130450000000     0.0616084  
C24      C      0.068280000000     0.127840000000     0.088630000000    -0.0293586  
C25      C      0.139560000000     0.155930000000     0.154710000000     0.0609273  
C26      C      0.165500000000     0.161540000000     0.196340000000    -0.0437661  
C27      C      0.114510000000     0.165060000000     0.163030000000    -0.0559987  
C28      C      0.192670000000     0.170240000000     0.207030000000     0.0400588  
C29      C      0.193320000000     0.207140000000     0.169290000000    -0.00683145 
C30      C      0.119080000000     0.124040000000     0.122200000000    -0.0564711  
C31      C      0.163000000000     0.162170000000     0.336820000000    -0.0308816  
C32      C      0.066480000000     0.128950000000     0.445710000000    -0.0294643  
C33      C      0.036010000000     0.085600000000     0.418400000000    -0.00847115 
C34      C      0.039110000000     0.121510000000     0.456540000000    -0.00866914 
C35      C      0.090260000000     0.155450000000     0.383760000000    -0.0540277  
C36      C      0.139370000000     0.134270000000     0.398680000000    -0.0537093  
C37      C      0.091850000000     0.134290000000     0.403640000000     0.0613939  
C38      C      0.063500000000     0.094250000000     0.409150000000    -0.0292723  
C39      C      0.137780000000     0.155440000000     0.378800000000     0.0609188  
C40      C      0.166090000000     0.195540000000     0.374520000000    -0.0436036  
C41      C      0.112970000000     0.166020000000     0.371420000000    -0.0560832  
C42      C      0.193510000000     0.204910000000     0.365360000000     0.0400533  
C43      C      0.190340000000     0.169840000000     0.326090000000    -0.00697311 
C44      C      0.116650000000     0.123720000000     0.411050000000    -0.0564909  
C45      C      0.071500000000     0.419790000000     0.090830000000    -0.030316   
C46      C      0.160890000000     0.375880000000     0.200710000000    -0.0293531  
C47      C      0.171640000000     0.318880000000     0.183200000000    -0.0081178  
C48      C      0.171840000000     0.355100000000     0.221630000000    -0.00813083 
C49      C      0.102760000000     0.379550000000     0.163900000000    -0.0540746  
C50      C      0.128010000000     0.417570000000     0.129080000000    -0.053753   
C51      C      0.130200000000     0.380170000000     0.162930000000     0.0616142  
C52      C      0.160530000000     0.341360000000     0.164060000000    -0.0295687  
C53      C      0.100560000000     0.416910000000     0.130010000000     0.0612821  
C54      C      0.068660000000     0.454330000000     0.127310000000    -0.043806   
C55      C      0.087970000000     0.397700000000     0.147570000000    -0.0561844  
C56      C      0.057250000000     0.476290000000     0.107560000000     0.0404841  
C57      C      0.060980000000     0.439980000000     0.069160000000    -0.00710171 
C58      C      0.142790000000     0.399370000000     0.145350000000    -0.0564037  
C59      C      0.408130000000     0.126070000000     0.085260000000    -0.0302706  
C60      C      0.328670000000     0.171880000000     0.203310000000    -0.0294927  
C61      C      0.319860000000     0.230220000000     0.189650000000    -0.00846604 
C62      C      0.319940000000     0.192320000000     0.225730000000    -0.00829773 
C63      C      0.383080000000     0.165170000000     0.161690000000    -0.0541649  
C64      C      0.352350000000     0.132950000000     0.125970000000    -0.0537775  
C65      C      0.355720000000     0.167560000000     0.162560000000     0.0616566  
C66      C      0.328720000000     0.208610000000     0.168380000000    -0.029486   
C67      C      0.379710000000     0.130670000000     0.125020000000     0.0613343  
C68      C      0.405270000000     0.088660000000     0.119130000000    -0.0437849  
C69      C      0.395060000000     0.146850000000     0.143140000000    -0.0561943  
C70      C      0.413760000000     0.066860000000     0.097700000000     0.0407     
C71      C      0.416170000000     0.105890000000     0.062360000000    -0.00734933 
C72      C      0.340360000000     0.151180000000     0.144600000000    -0.0563853  
C73      C      0.322710000000     0.372780000000     0.338260000000    -0.0306278  
C74      C      0.408690000000     0.416800000000     0.452240000000    -0.0290598  
C75      C      0.436010000000     0.462650000000     0.425040000000    -0.0085451  
C76      C      0.434980000000     0.426620000000     0.463910000000    -0.00865723 
C77      C      0.391090000000     0.386520000000     0.389840000000    -0.0541931  
C78      C      0.339380000000     0.402090000000     0.401430000000    -0.0537398  
C79      C      0.386220000000     0.407670000000     0.409110000000     0.0617384  
C80      C      0.409700000000     0.450960000000     0.415410000000    -0.0291246  
C81      C      0.344260000000     0.381070000000     0.382030000000     0.0612134  
C82      C      0.320140000000     0.338320000000     0.374770000000    -0.043501   
C83      C      0.370330000000     0.373240000000     0.376380000000    -0.0561622  
C84      C      0.293910000000     0.327010000000     0.364090000000     0.0397992  
C85      C      0.296670000000     0.363480000000     0.325620000000    -0.00717751 
C86      C      0.360140000000     0.415340000000     0.414940000000    -0.0565265  
C87      C      0.406860000000     0.086250000000     0.415290000000    -0.0306624  
C88      C      0.324180000000     0.203670000000     0.370460000000    -0.029413   
C89      C      0.318000000000     0.190740000000     0.311880000000    -0.00853456 
C90      C      0.315370000000     0.226380000000     0.350240000000    -0.00857951 
C91      C      0.380190000000     0.163350000000     0.377280000000    -0.0540488  
C92      C      0.350150000000     0.126050000000     0.408450000000    -0.0537289  
C93      C      0.352820000000     0.163730000000     0.374870000000     0.0614853  
C94      C      0.326630000000     0.169330000000     0.333450000000    -0.0293641  
C95      C      0.377530000000     0.125630000000     0.410800000000     0.0609889  
C96      C      0.403060000000     0.120090000000     0.452630000000    -0.0437144  
C97      C      0.392530000000     0.144530000000     0.395090000000    -0.0561178  
C98      C      0.412030000000     0.098700000000     0.474230000000     0.0403307  
C99      C      0.415810000000     0.063470000000     0.435340000000    -0.00697087 
C100     C      0.337810000000     0.144910000000     0.390660000000    -0.0564137  
C101     C      0.072940000000     0.454110000000     0.413870000000    -0.0307904  
C102     C      0.159510000000     0.339520000000     0.371300000000    -0.0293737  
C103     C      0.170750000000     0.354920000000     0.314120000000    -0.00793822 
C104     C      0.169540000000     0.317400000000     0.351150000000    -0.00819406 
C105     C      0.103170000000     0.379410000000     0.374350000000    -0.0540297  
C106     C      0.130190000000     0.414990000000     0.410230000000    -0.0537351  
C107     C      0.130640000000     0.379270000000     0.374540000000     0.0616139  
C108     C      0.160650000000     0.375380000000     0.335890000000    -0.0294728  
C109     C      0.102720000000     0.415130000000     0.410030000000     0.0611305  
C110     C      0.073510000000     0.418300000000     0.449340000000    -0.0439715  
C111     C      0.089240000000     0.397130000000     0.391930000000    -0.0560772  
C112     C      0.063130000000     0.438430000000     0.471410000000     0.041022   
C113     C      0.062760000000     0.476010000000     0.434170000000    -0.00665343 
C114     C      0.144120000000     0.397230000000     0.392660000000    -0.0564707  
C115     C      0.407230000000     0.452460000000     0.118720000000    -0.0302176  
C116     C      0.323740000000     0.336830000000     0.164750000000    -0.0294463  
C117     C      0.313980000000     0.352510000000     0.222160000000    -0.00904274 
C118     C      0.314070000000     0.314930000000     0.185360000000    -0.0086468  
C119     C      0.380050000000     0.377100000000     0.159700000000    -0.0539375  
C120     C      0.351990000000     0.411450000000     0.123550000000    -0.0535677  
C121     C      0.352570000000     0.376580000000     0.160160000000     0.0609992  
C122     C      0.323740000000     0.372880000000     0.200000000000    -0.0293581  
C123     C      0.379470000000     0.411920000000     0.123050000000     0.0606951  
C124     C      0.409430000000     0.415900000000     0.084100000000    -0.043703   
C125     C      0.393460000000     0.394610000000     0.141390000000    -0.0560115  
C126     C      0.419680000000     0.436170000000     0.061930000000     0.0401156  
C127     C      0.416570000000     0.474490000000     0.098120000000    -0.00795364 
C128     C      0.338580000000     0.394000000000     0.141920000000    -0.0562601  
C129     C      0.451310000000     0.475350000000     0.562380000000     0.386967   
C130     C      0.448510000000     0.064600000000     0.973300000000     0.388312   
C131     C      0.448670000000     0.067610000000     0.562030000000     0.388387   
C132     C      0.458400000000     0.471120000000     0.969390000000     0.38885    
C133     C      0.029900000000     0.475870000000     0.971770000000     0.395864   
C134     C      0.018720000000     0.074860000000     0.570200000000     0.393923   
C135     C      0.026800000000     0.476170000000     0.567740000000     0.395608   
C136     C      0.017480000000     0.076030000000     0.964800000000     0.393754   
C137     C      0.280450000000     0.315170000000     0.722300000000     0.383727   
C138     C      0.282210000000     0.225580000000     0.812720000000     0.386023   
C139     C      0.273230000000     0.319190000000     0.818610000000     0.391531   
C140     C      0.284190000000     0.227240000000     0.724410000000     0.383758   
C141     C      0.213660000000     0.216040000000     0.714940000000     0.396148   
C142     C      0.203060000000     0.316640000000     0.814260000000     0.393715   
C143     C      0.204570000000     0.317380000000     0.720650000000     0.393503   
C144     C      0.212960000000     0.215010000000     0.819530000000     0.395962   
C145     C      0.166070000000     0.197170000000     0.660610000000    -0.0307306  
C146     C      0.066980000000     0.092370000000     0.624460000000    -0.0292485  
C147     C      0.040910000000     0.119950000000     0.578250000000    -0.00846464 
C148     C      0.039540000000     0.083000000000     0.615720000000    -0.00846421 
C149     C      0.092000000000     0.153770000000     0.650940000000    -0.0541582  
C150     C      0.141600000000     0.135350000000     0.634280000000    -0.0536057  
C151     C      0.094040000000     0.133260000000     0.630450000000     0.0616166  
C152     C      0.068280000000     0.127840000000     0.588630000000    -0.029392   
C153     C      0.139560000000     0.155930000000     0.654710000000     0.0609344  
C154     C      0.165500000000     0.161540000000     0.696340000000    -0.0437672  
C155     C      0.114510000000     0.165060000000     0.663030000000    -0.0559934  
C156     C      0.192670000000     0.170240000000     0.707030000000     0.0400573  
C157     C      0.193320000000     0.207140000000     0.669290000000    -0.00683392 
C158     C      0.119080000000     0.124040000000     0.622200000000    -0.0564603  
C159     C      0.163000000000     0.162170000000     0.836820000000    -0.0308832  
C160     C      0.066480000000     0.128950000000     0.945710000000    -0.0294646  
C161     C      0.036010000000     0.085600000000     0.918400000000    -0.00848945 
C162     C      0.039110000000     0.121510000000     0.956540000000    -0.00867488 
C163     C      0.090260000000     0.155450000000     0.883760000000    -0.0540125  
C164     C      0.139370000000     0.134270000000     0.898680000000    -0.0537088  
C165     C      0.091850000000     0.134290000000     0.903640000000     0.0613868  
C166     C      0.063500000000     0.094250000000     0.909150000000    -0.0292684  
C167     C      0.137780000000     0.155440000000     0.878800000000     0.060931   
C168     C      0.166090000000     0.195540000000     0.874520000000    -0.0436589  
C169     C      0.112970000000     0.166020000000     0.871420000000    -0.0560836  
C170     C      0.193510000000     0.204910000000     0.865360000000     0.0400597  
C171     C      0.190340000000     0.169840000000     0.826090000000    -0.00697375 
C172     C      0.116650000000     0.123720000000     0.911040000000    -0.0564309  
C173     C      0.071500000000     0.419790000000     0.590830000000    -0.0302853  
C174     C      0.160890000000     0.375880000000     0.700710000000    -0.0293529  
C175     C      0.171640000000     0.318880000000     0.683200000000    -0.00813461 
C176     C      0.171840000000     0.355100000000     0.721630000000    -0.00814306 
C177     C      0.102760000000     0.379550000000     0.663900000000    -0.054058   
C178     C      0.128010000000     0.417570000000     0.629070000000    -0.0538068  
C179     C      0.130200000000     0.380170000000     0.662930000000     0.0616105  
C180     C      0.160530000000     0.341360000000     0.664060000000    -0.0295353  
C181     C      0.100560000000     0.416910000000     0.630010000000     0.0613487  
C182     C      0.068660000000     0.454330000000     0.627310000000    -0.0438044  
C183     C      0.087970000000     0.397700000000     0.647560000000    -0.0562198  
C184     C      0.057250000000     0.476290000000     0.607560000000     0.0404777  
C185     C      0.060980000000     0.439980000000     0.569160000000    -0.00710245 
C186     C      0.142790000000     0.399370000000     0.645350000000    -0.056369   
C187     C      0.408130000000     0.126070000000     0.585260000000    -0.0302586  
C188     C      0.328670000000     0.171880000000     0.703310000000    -0.0294955  
C189     C      0.319860000000     0.230220000000     0.689650000000    -0.00846377 
C190     C      0.319940000000     0.192320000000     0.725730000000    -0.00829788 
C191     C      0.383080000000     0.165170000000     0.661690000000    -0.0541566  
C192     C      0.352350000000     0.132950000000     0.625970000000    -0.0537672  
C193     C      0.355720000000     0.167560000000     0.662560000000     0.0616597  
C194     C      0.328720000000     0.208610000000     0.668380000000    -0.0294918  
C195     C      0.379710000000     0.130670000000     0.625020000000     0.0613487  
C196     C      0.405270000000     0.088660000000     0.619130000000    -0.0437841  
C197     C      0.395060000000     0.146850000000     0.643140000000    -0.0561921  
C198     C      0.413760000000     0.066860000000     0.597700000000     0.0406939  
C199     C      0.416170000000     0.105890000000     0.562360000000    -0.00737072 
C200     C      0.340360000000     0.151180000000     0.644600000000    -0.0563715  
C201     C      0.322710000000     0.372780000000     0.838260000000    -0.0306424  
C202     C      0.408690000000     0.416800000000     0.952250000000    -0.0291408  
C203     C      0.436010000000     0.462650000000     0.925040000000    -0.00854961 
C204     C      0.434980000000     0.426620000000     0.963910000000    -0.0086251  
C205     C      0.391090000000     0.386520000000     0.889840000000    -0.0541711  
C206     C      0.339380000000     0.402090000000     0.901430000000    -0.0537325  
C207     C      0.386220000000     0.407670000000     0.909110000000     0.0617451  
C208     C      0.409700000000     0.450960000000     0.915410000000    -0.0290833  
C209     C      0.344260000000     0.381070000000     0.882030000000     0.0612405  
C210     C      0.320140000000     0.338320000000     0.874770000000    -0.0434828  
C211     C      0.370330000000     0.373240000000     0.876370000000    -0.0562053  
C212     C      0.293910000000     0.327010000000     0.864090000000     0.0397342  
C213     C      0.296670000000     0.363480000000     0.825620000000    -0.00713788 
C214     C      0.360140000000     0.415340000000     0.914940000000    -0.0565066  
C215     C      0.406860000000     0.086250000000     0.915290000000    -0.030662   
C216     C      0.324180000000     0.203670000000     0.870460000000    -0.0293789  
C217     C      0.318000000000     0.190740000000     0.811880000000    -0.00853737 
C218     C      0.315370000000     0.226380000000     0.850250000000    -0.00866663 
C219     C      0.380190000000     0.163350000000     0.877280000000    -0.054048   
C220     C      0.350150000000     0.126050000000     0.908440000000    -0.0536675  
C221     C      0.352820000000     0.163730000000     0.874870000000     0.0614963  
C222     C      0.326630000000     0.169330000000     0.833450000000    -0.0293638  
C223     C      0.377530000000     0.125630000000     0.910800000000     0.0609747  
C224     C      0.403060000000     0.120090000000     0.952630000000    -0.043701   
C225     C      0.392530000000     0.144530000000     0.895090000000    -0.0561003  
C226     C      0.412030000000     0.098700000000     0.974230000000     0.0402748  
C227     C      0.415810000000     0.063470000000     0.935340000000    -0.00697496 
C228     C      0.337810000000     0.144910000000     0.890660000000    -0.0564139  
C229     C      0.072940000000     0.454110000000     0.913870000000    -0.0307887  
C230     C      0.159510000000     0.339520000000     0.871300000000    -0.0293816  
C231     C      0.170750000000     0.354920000000     0.814120000000    -0.00793232 
C232     C      0.169540000000     0.317400000000     0.851150000000    -0.00818662 
C233     C      0.103170000000     0.379410000000     0.874350000000    -0.0540292  
C234     C      0.130190000000     0.414990000000     0.910230000000    -0.0536794  
C235     C      0.130640000000     0.379270000000     0.874540000000     0.0616257  
C236     C      0.160650000000     0.375380000000     0.835890000000    -0.0294778  
C237     C      0.102720000000     0.415130000000     0.910030000000     0.0611243  
C238     C      0.073510000000     0.418300000000     0.949340000000    -0.0439525  
C239     C      0.089240000000     0.397130000000     0.891930000000    -0.0560647  
C240     C      0.063130000000     0.438430000000     0.971410000000     0.0409436  
C241     C      0.062760000000     0.476010000000     0.934170000000    -0.00665876 
C242     C      0.144120000000     0.397230000000     0.892660000000    -0.0564769  
C243     C      0.407230000000     0.452460000000     0.618720000000    -0.0302196  
C244     C      0.323740000000     0.336830000000     0.664750000000    -0.02945    
C245     C      0.313980000000     0.352510000000     0.722160000000    -0.00905498 
C246     C      0.314070000000     0.314930000000     0.685360000000    -0.00865247 
C247     C      0.380050000000     0.377100000000     0.659700000000    -0.0539295  
C248     C      0.351990000000     0.411450000000     0.623550000000    -0.0535579  
C249     C      0.352570000000     0.376580000000     0.660160000000     0.0610024  
C250     C      0.323740000000     0.372880000000     0.700000000000    -0.0293579  
C251     C      0.379470000000     0.411920000000     0.623050000000     0.0607082  
C252     C      0.409430000000     0.415900000000     0.584100000000    -0.0436923  
C253     C      0.393460000000     0.394610000000     0.641390000000    -0.0560085  
C254     C      0.419680000000     0.436170000000     0.561930000000     0.0400712  
C255     C      0.416570000000     0.474490000000     0.598120000000    -0.00795041 
C256     C      0.338580000000     0.394000000000     0.641920000000    -0.0562468  
C257     C      0.451310000000     0.975350000000     0.062380000000     0.38678    
C258     C      0.448510000000     0.564600000000     0.473300000000     0.388383   
C259     C      0.448670000000     0.567610000000     0.062030000000     0.388458   
C260     C      0.458400000000     0.971120000000     0.469390000000     0.389072   
C261     C      0.029900000000     0.975870000000     0.471770000000     0.395873   
C262     C      0.018720000000     0.574860000000     0.070200000000     0.393943   
C263     C      0.026800000000     0.976170000000     0.067740000000     0.395798   
C264     C      0.017480000000     0.576030000000     0.464800000000     0.393761   
C265     C      0.280450000000     0.815170000000     0.222300000000     0.383953   
C266     C      0.282210000000     0.725580000000     0.312720000000     0.385969   
C267     C      0.273230000000     0.819190000000     0.318610000000     0.391602   
C268     C      0.284190000000     0.727240000000     0.224410000000     0.383759   
C269     C      0.213660000000     0.716040000000     0.214940000000     0.396146   
C270     C      0.203060000000     0.816640000000     0.314260000000     0.393436   
C271     C      0.204570000000     0.817380000000     0.220650000000     0.393496   
C272     C      0.212960000000     0.715010000000     0.319530000000     0.396044   
C273     C      0.166070000000     0.697170000000     0.160610000000    -0.0306975  
C274     C      0.066980000000     0.592370000000     0.124460000000    -0.0292432  
C275     C      0.040910000000     0.619950000000     0.078250000000    -0.00846868 
C276     C      0.039540000000     0.583000000000     0.115720000000    -0.00847437 
C277     C      0.092000000000     0.653770000000     0.150940000000    -0.0541593  
C278     C      0.141600000000     0.635350000000     0.134280000000    -0.0536093  
C279     C      0.094040000000     0.633260000000     0.130450000000     0.0616156  
C280     C      0.068280000000     0.627840000000     0.088630000000    -0.0293637  
C281     C      0.139560000000     0.655930000000     0.154710000000     0.0609354  
C282     C      0.165500000000     0.661540000000     0.196340000000    -0.0437651  
C283     C      0.114510000000     0.665060000000     0.163030000000    -0.0559942  
C284     C      0.192670000000     0.670240000000     0.207030000000     0.0400491  
C285     C      0.193320000000     0.707140000000     0.169290000000    -0.00684517 
C286     C      0.119080000000     0.624040000000     0.122200000000    -0.0564611  
C287     C      0.163000000000     0.662170000000     0.336820000000    -0.0308635  
C288     C      0.066480000000     0.628950000000     0.445710000000    -0.0294885  
C289     C      0.036010000000     0.585600000000     0.418400000000    -0.0085142  
C290     C      0.039110000000     0.621510000000     0.456540000000    -0.00860695 
C291     C      0.090260000000     0.655450000000     0.383760000000    -0.0540229  
C292     C      0.139370000000     0.634270000000     0.398680000000    -0.0536928  
C293     C      0.091850000000     0.634290000000     0.403640000000     0.0614032  
C294     C      0.063500000000     0.594250000000     0.409150000000    -0.0292616  
C295     C      0.137780000000     0.655440000000     0.378800000000     0.0609264  
C296     C      0.166090000000     0.695540000000     0.374520000000    -0.0436168  
C297     C      0.112970000000     0.666020000000     0.371420000000    -0.0560783  
C298     C      0.193510000000     0.704910000000     0.365360000000     0.0400902  
C299     C      0.190340000000     0.669840000000     0.326090000000    -0.00702866 
C300     C      0.116650000000     0.623720000000     0.411050000000    -0.0564796  
C301     C      0.071500000000     0.919790000000     0.090830000000    -0.0303142  
C302     C      0.160890000000     0.875880000000     0.200710000000    -0.0293572  
C303     C      0.171640000000     0.818880000000     0.183200000000    -0.0081293  
C304     C      0.171840000000     0.855100000000     0.221630000000    -0.00813626 
C305     C      0.102760000000     0.879550000000     0.163900000000    -0.0540653  
C306     C      0.128010000000     0.917570000000     0.129080000000    -0.053736   
C307     C      0.130200000000     0.880170000000     0.162930000000     0.0616189  
C308     C      0.160530000000     0.841360000000     0.164060000000    -0.0295688  
C309     C      0.100560000000     0.916910000000     0.130010000000     0.0612994  
C310     C      0.068660000000     0.954330000000     0.127310000000    -0.043954   
C311     C      0.087970000000     0.897700000000     0.147570000000    -0.0561796  
C312     C      0.057250000000     0.976290000000     0.107560000000     0.0410305  
C313     C      0.060980000000     0.939980000000     0.069160000000    -0.00712638 
C314     C      0.142790000000     0.899370000000     0.145350000000    -0.0563883  
C315     C      0.408130000000     0.626070000000     0.085260000000    -0.0302557  
C316     C      0.328670000000     0.671880000000     0.203310000000    -0.0295317  
C317     C      0.319860000000     0.730220000000     0.189650000000    -0.00847659 
C318     C      0.319940000000     0.692320000000     0.225730000000    -0.00828296 
C319     C      0.383080000000     0.665170000000     0.161690000000    -0.0541357  
C320     C      0.352350000000     0.632950000000     0.125970000000    -0.0537804  
C321     C      0.355720000000     0.667560000000     0.162560000000     0.0616147  
C322     C      0.328720000000     0.708610000000     0.168380000000    -0.0294505  
C323     C      0.379710000000     0.630670000000     0.125020000000     0.0613519  
C324     C      0.405270000000     0.588660000000     0.119130000000    -0.0437928  
C325     C      0.395060000000     0.646850000000     0.143140000000    -0.0562021  
C326     C      0.413760000000     0.566860000000     0.097700000000     0.0407049  
C327     C      0.416170000000     0.605890000000     0.062360000000    -0.00740412 
C328     C      0.340360000000     0.651180000000     0.144600000000    -0.0563543  
C329     C      0.322710000000     0.872780000000     0.338260000000    -0.0306851  
C330     C      0.408690000000     0.916800000000     0.452240000000    -0.0290849  
C331     C      0.436010000000     0.962650000000     0.425040000000    -0.00858324 
C332     C      0.434980000000     0.926620000000     0.463910000000    -0.00863463 
C333     C      0.391090000000     0.886530000000     0.389840000000    -0.054197   
C334     C      0.339380000000     0.902090000000     0.401430000000    -0.0537195  
C335     C      0.386220000000     0.907670000000     0.409110000000     0.061769   
C336     C      0.409700000000     0.950960000000     0.415410000000    -0.0291121  
C337     C      0.344260000000     0.881070000000     0.382030000000     0.0612212  
C338     C      0.320140000000     0.838320000000     0.374770000000    -0.0435048  
C339     C      0.370330000000     0.873240000000     0.376380000000    -0.056162   
C340     C      0.293910000000     0.827010000000     0.364090000000     0.0397952  
C341     C      0.296670000000     0.863470000000     0.325620000000    -0.0070462  
C342     C      0.360140000000     0.915340000000     0.414940000000    -0.0565245  
C343     C      0.406860000000     0.586250000000     0.415290000000    -0.0306542  
C344     C      0.324180000000     0.703670000000     0.370460000000    -0.029396   
C345     C      0.318000000000     0.690740000000     0.311880000000    -0.00848529 
C346     C      0.315370000000     0.726380000000     0.350240000000    -0.00863048 
C347     C      0.380190000000     0.663350000000     0.377280000000    -0.0540416  
C348     C      0.350150000000     0.626050000000     0.408450000000    -0.0537195  
C349     C      0.352820000000     0.663730000000     0.374870000000     0.0614878  
C350     C      0.326630000000     0.669330000000     0.333450000000    -0.0293826  
C351     C      0.377530000000     0.625630000000     0.410800000000     0.0610018  
C352     C      0.403060000000     0.620090000000     0.452630000000    -0.0437137  
C353     C      0.392530000000     0.644530000000     0.395090000000    -0.0561157  
C354     C      0.412030000000     0.598700000000     0.474230000000     0.0403217  
C355     C      0.415810000000     0.563470000000     0.435340000000    -0.0069853  
C356     C      0.337810000000     0.644910000000     0.390660000000    -0.0564011  
C357     C      0.072940000000     0.954110000000     0.413870000000    -0.0307807  
C358     C      0.159510000000     0.839520000000     0.371300000000    -0.0293633  
C359     C      0.170750000000     0.854930000000     0.314120000000    -0.00799303 
C360     C      0.169540000000     0.817400000000     0.351150000000    -0.00823395 
C361     C      0.103170000000     0.879410000000     0.374350000000    -0.0540207  
C362     C      0.130190000000     0.914990000000     0.410230000000    -0.0537237  
C363     C      0.130640000000     0.879270000000     0.374540000000     0.0616182  
C364     C      0.160650000000     0.875380000000     0.335890000000    -0.0294514  
C365     C      0.102720000000     0.915130000000     0.410030000000     0.0611449  
C366     C      0.073510000000     0.918300000000     0.449340000000    -0.0439707  
C367     C      0.089240000000     0.897130000000     0.391930000000    -0.0560739  
C368     C      0.063130000000     0.938430000000     0.471410000000     0.0410123  
C369     C      0.062760000000     0.976010000000     0.434170000000    -0.00667262 
C370     C      0.144120000000     0.897230000000     0.392660000000    -0.0564565  
C371     C      0.407230000000     0.952460000000     0.118720000000    -0.0301798  
C372     C      0.323740000000     0.836830000000     0.164750000000    -0.0294499  
C373     C      0.313980000000     0.852510000000     0.222160000000    -0.00901149 
C374     C      0.314070000000     0.814930000000     0.185360000000    -0.0086457  
C375     C      0.380050000000     0.877100000000     0.159700000000    -0.0539279  
C376     C      0.351990000000     0.911450000000     0.123550000000    -0.0535567  
C377     C      0.352570000000     0.876580000000     0.160160000000     0.0610031  
C378     C      0.323740000000     0.872880000000     0.200000000000    -0.0293768  
C379     C      0.379470000000     0.911920000000     0.123050000000     0.060712   
C380     C      0.409430000000     0.915900000000     0.084100000000    -0.0437015  
C381     C      0.393460000000     0.894610000000     0.141390000000    -0.0560084  
C382     C      0.419680000000     0.936170000000     0.061930000000     0.040105   
C383     C      0.416570000000     0.974490000000     0.098120000000    -0.00798857 
C384     C      0.338580000000     0.894000000000     0.141920000000    -0.0562447  
C385     C      0.451310000000     0.975350000000     0.562380000000     0.386945   
C386     C      0.448510000000     0.564600000000     0.973300000000     0.388355   
C387     C      0.448670000000     0.567610000000     0.562030000000     0.388487   
C388     C      0.458400000000     0.971120000000     0.969390000000     0.389048   
C389     C      0.029900000000     0.975870000000     0.971770000000     0.395842   
C390     C      0.018720000000     0.574860000000     0.570200000000     0.393968   
C391     C      0.026800000000     0.976170000000     0.567740000000     0.395822   
C392     C      0.017480000000     0.576030000000     0.964800000000     0.393732   
C393     C      0.280450000000     0.815170000000     0.722300000000     0.383726   
C394     C      0.282210000000     0.725580000000     0.812720000000     0.385967   
C395     C      0.273230000000     0.819190000000     0.818610000000     0.391531   
C396     C      0.284190000000     0.727240000000     0.724410000000     0.383758   
C397     C      0.213660000000     0.716040000000     0.714940000000     0.396145   
C398     C      0.203060000000     0.816640000000     0.814260000000     0.393568   
C399     C      0.204570000000     0.817380000000     0.720650000000     0.393277   
C400     C      0.212960000000     0.715010000000     0.819530000000     0.396042   
C401     C      0.166070000000     0.697170000000     0.660610000000    -0.0306984  
C402     C      0.066980000000     0.592370000000     0.624460000000    -0.029249   
C403     C      0.040910000000     0.619950000000     0.578250000000    -0.00845877 
C404     C      0.039540000000     0.583000000000     0.615720000000    -0.00846836 
C405     C      0.092000000000     0.653770000000     0.650940000000    -0.0541532  
C406     C      0.141600000000     0.635350000000     0.634280000000    -0.0535934  
C407     C      0.094040000000     0.633260000000     0.630450000000     0.0616238  
C408     C      0.068280000000     0.627840000000     0.588630000000    -0.0293971  
C409     C      0.139560000000     0.655930000000     0.654710000000     0.0609425  
C410     C      0.165500000000     0.661540000000     0.696340000000    -0.0437662  
C411     C      0.114510000000     0.665060000000     0.663030000000    -0.0559889  
C412     C      0.192670000000     0.670240000000     0.707030000000     0.0400476  
C413     C      0.193320000000     0.707140000000     0.669290000000    -0.00684765 
C414     C      0.119080000000     0.624040000000     0.622200000000    -0.0564502  
C415     C      0.163000000000     0.662170000000     0.836820000000    -0.030865   
C416     C      0.066480000000     0.628950000000     0.945710000000    -0.0294889  
C417     C      0.036010000000     0.585600000000     0.918400000000    -0.00853249 
C418     C      0.039110000000     0.621510000000     0.956540000000    -0.00861271 
C419     C      0.090260000000     0.655450000000     0.883760000000    -0.0540076  
C420     C      0.139370000000     0.634270000000     0.898680000000    -0.0536923  
C421     C      0.091850000000     0.634290000000     0.903640000000     0.0613961  
C422     C      0.063500000000     0.594250000000     0.909150000000    -0.0292576  
C423     C      0.137780000000     0.655440000000     0.878800000000     0.0609386  
C424     C      0.166090000000     0.695540000000     0.874520000000    -0.043672   
C425     C      0.112970000000     0.666020000000     0.871420000000    -0.0560787  
C426     C      0.193510000000     0.704910000000     0.865360000000     0.0400966  
C427     C      0.190340000000     0.669840000000     0.826090000000    -0.00702931 
C428     C      0.116650000000     0.623720000000     0.911040000000    -0.0564196  
C429     C      0.071500000000     0.919790000000     0.590830000000    -0.0302835  
C430     C      0.160890000000     0.875880000000     0.700710000000    -0.029357   
C431     C      0.171640000000     0.818880000000     0.683200000000    -0.00814611 
C432     C      0.171840000000     0.855100000000     0.721630000000    -0.00814849 
C433     C      0.102760000000     0.879550000000     0.663900000000    -0.0540487  
C434     C      0.128010000000     0.917570000000     0.629070000000    -0.0537898  
C435     C      0.130200000000     0.880170000000     0.662930000000     0.0616153  
C436     C      0.160530000000     0.841360000000     0.664060000000    -0.0295354  
C437     C      0.100560000000     0.916910000000     0.630010000000     0.061366   
C438     C      0.068660000000     0.954330000000     0.627310000000    -0.0439527  
C439     C      0.087970000000     0.897700000000     0.647560000000    -0.0562151  
C440     C      0.057250000000     0.976290000000     0.607560000000     0.0410252  
C441     C      0.060980000000     0.939980000000     0.569160000000    -0.00712704 
C442     C      0.142790000000     0.899370000000     0.645350000000    -0.0563536  
C443     C      0.408130000000     0.626070000000     0.585260000000    -0.0302437  
C444     C      0.328670000000     0.671880000000     0.703310000000    -0.0295345  
C445     C      0.319860000000     0.730220000000     0.689650000000    -0.00847431 
C446     C      0.319940000000     0.692320000000     0.725730000000    -0.00828311 
C447     C      0.383080000000     0.665170000000     0.661690000000    -0.0541274  
C448     C      0.352350000000     0.632950000000     0.625970000000    -0.0537701  
C449     C      0.355720000000     0.667560000000     0.662560000000     0.0616177  
C450     C      0.328720000000     0.708610000000     0.668380000000    -0.0294563  
C451     C      0.379710000000     0.630670000000     0.625020000000     0.0613664  
C452     C      0.405270000000     0.588660000000     0.619130000000    -0.0437919  
C453     C      0.395060000000     0.646850000000     0.643140000000    -0.0562     
C454     C      0.413760000000     0.566860000000     0.597700000000     0.0406987  
C455     C      0.416170000000     0.605890000000     0.562360000000    -0.00742555 
C456     C      0.340360000000     0.651180000000     0.644600000000    -0.0563404  
C457     C      0.322710000000     0.872780000000     0.838260000000    -0.0306997  
C458     C      0.408690000000     0.916800000000     0.952250000000    -0.029166   
C459     C      0.436010000000     0.962650000000     0.925040000000    -0.00858778 
C460     C      0.434980000000     0.926620000000     0.963910000000    -0.00860249 
C461     C      0.391090000000     0.886530000000     0.889840000000    -0.054175   
C462     C      0.339380000000     0.902090000000     0.901430000000    -0.0537122  
C463     C      0.386220000000     0.907670000000     0.909110000000     0.0617757  
C464     C      0.409700000000     0.950960000000     0.915410000000    -0.0290707  
C465     C      0.344260000000     0.881070000000     0.882030000000     0.0612483  
C466     C      0.320140000000     0.838320000000     0.874770000000    -0.0434866  
C467     C      0.370330000000     0.873240000000     0.876370000000    -0.0562051  
C468     C      0.293910000000     0.827010000000     0.864090000000     0.0397301  
C469     C      0.296670000000     0.863470000000     0.825620000000    -0.00700652 
C470     C      0.360140000000     0.915340000000     0.914940000000    -0.0565045  
C471     C      0.406860000000     0.586250000000     0.915290000000    -0.0306537  
C472     C      0.324180000000     0.703670000000     0.870460000000    -0.0293619  
C473     C      0.318000000000     0.690740000000     0.811880000000    -0.0084881  
C474     C      0.315370000000     0.726380000000     0.850250000000    -0.00871756 
C475     C      0.380190000000     0.663350000000     0.877280000000    -0.0540408  
C476     C      0.350150000000     0.626050000000     0.908440000000    -0.0536581  
C477     C      0.352820000000     0.663730000000     0.874870000000     0.0614988  
C478     C      0.326630000000     0.669330000000     0.833450000000    -0.0293822  
C479     C      0.377530000000     0.625630000000     0.910800000000     0.0609876  
C480     C      0.403060000000     0.620090000000     0.952630000000    -0.0437003  
C481     C      0.392530000000     0.644530000000     0.895090000000    -0.0560981  
C482     C      0.412030000000     0.598700000000     0.974230000000     0.0402658  
C483     C      0.415810000000     0.563470000000     0.935340000000    -0.0069894  
C484     C      0.337810000000     0.644910000000     0.890660000000    -0.0564013  
C485     C      0.072940000000     0.954110000000     0.913870000000    -0.0307791  
C486     C      0.159510000000     0.839520000000     0.871300000000    -0.0293712  
C487     C      0.170750000000     0.854930000000     0.814120000000    -0.00798713 
C488     C      0.169540000000     0.817400000000     0.851150000000    -0.00822651 
C489     C      0.103170000000     0.879410000000     0.874350000000    -0.0540202  
C490     C      0.130190000000     0.914990000000     0.910230000000    -0.0536681  
C491     C      0.130640000000     0.879270000000     0.874540000000     0.06163    
C492     C      0.160650000000     0.875380000000     0.835890000000    -0.0294563  
C493     C      0.102720000000     0.915130000000     0.910030000000     0.0611388  
C494     C      0.073510000000     0.918300000000     0.949340000000    -0.0439517  
C495     C      0.089240000000     0.897130000000     0.891930000000    -0.0560613  
C496     C      0.063130000000     0.938430000000     0.971410000000     0.040934   
C497     C      0.062760000000     0.976010000000     0.934170000000    -0.00667793 
C498     C      0.144120000000     0.897230000000     0.892660000000    -0.0564628  
C499     C      0.407230000000     0.952460000000     0.618720000000    -0.0301817  
C500     C      0.323740000000     0.836830000000     0.664750000000    -0.0294536  
C501     C      0.313980000000     0.852510000000     0.722160000000    -0.00902372 
C502     C      0.314070000000     0.814930000000     0.685360000000    -0.00865137 
C503     C      0.380050000000     0.877100000000     0.659700000000    -0.0539199  
C504     C      0.351990000000     0.911450000000     0.623550000000    -0.0535468  
C505     C      0.352570000000     0.876580000000     0.660160000000     0.0610063  
C506     C      0.323740000000     0.872880000000     0.700000000000    -0.0293766  
C507     C      0.379470000000     0.911920000000     0.623050000000     0.0607251  
C508     C      0.409430000000     0.915900000000     0.584100000000    -0.0436908  
C509     C      0.393460000000     0.894610000000     0.641390000000    -0.0560054  
C510     C      0.419680000000     0.936170000000     0.561930000000     0.0400606  
C511     C      0.416570000000     0.974490000000     0.598120000000    -0.00798539 
C512     C      0.338580000000     0.894000000000     0.641920000000    -0.0562314  
C513     C      0.951310000000     0.475350000000     0.062380000000     0.386617   
C514     C      0.948510000000     0.064600000000     0.473300000000     0.388142   
C515     C      0.948670000000     0.067610000000     0.062030000000     0.388166   
C516     C      0.958400000000     0.471120000000     0.469390000000     0.388689   
C517     C      0.529900000000     0.475870000000     0.471770000000     0.39608    
C518     C      0.518720000000     0.074860000000     0.070200000000     0.394089   
C519     C      0.526800000000     0.476170000000     0.067740000000     0.395772   
C520     C      0.517480000000     0.076030000000     0.464800000000     0.393977   
C521     C      0.780450000000     0.315170000000     0.222300000000     0.383956   
C522     C      0.782210000000     0.225580000000     0.312720000000     0.386003   
C523     C      0.773230000000     0.319190000000     0.318610000000     0.391603   
C524     C      0.784190000000     0.227240000000     0.224410000000     0.383732   
C525     C      0.713660000000     0.216040000000     0.214940000000     0.39617    
C526     C      0.703060000000     0.316640000000     0.314260000000     0.393583   
C527     C      0.704570000000     0.317380000000     0.220650000000     0.393621   
C528     C      0.712960000000     0.215010000000     0.319530000000     0.39594    
C529     C      0.666070000000     0.197170000000     0.160610000000    -0.0307182  
C530     C      0.566980000000     0.092370000000     0.124460000000    -0.0292676  
C531     C      0.540910000000     0.119950000000     0.078250000000    -0.00844172 
C532     C      0.539540000000     0.083000000000     0.115720000000    -0.00843526 
C533     C      0.592000000000     0.153770000000     0.150940000000    -0.0541836  
C534     C      0.641600000000     0.135350000000     0.134280000000    -0.0536308  
C535     C      0.594040000000     0.133260000000     0.130450000000     0.0615743  
C536     C      0.568280000000     0.127840000000     0.088630000000    -0.0293826  
C537     C      0.639560000000     0.155930000000     0.154710000000     0.0609277  
C538     C      0.665510000000     0.161540000000     0.196340000000    -0.0437183  
C539     C      0.614510000000     0.165060000000     0.163030000000    -0.0560303  
C540     C      0.692670000000     0.170240000000     0.207030000000     0.0400586  
C541     C      0.693320000000     0.207140000000     0.169290000000    -0.00683474 
C542     C      0.619080000000     0.124040000000     0.122200000000    -0.0564632  
C543     C      0.663000000000     0.162170000000     0.336820000000    -0.0308635  
C544     C      0.566480000000     0.128950000000     0.445710000000    -0.0294883  
C545     C      0.536010000000     0.085600000000     0.418400000000    -0.00843352 
C546     C      0.539110000000     0.121510000000     0.456540000000    -0.00863636 
C547     C      0.590260000000     0.155450000000     0.383760000000    -0.0540478  
C548     C      0.639370000000     0.134270000000     0.398680000000    -0.0537199  
C549     C      0.591850000000     0.134290000000     0.403640000000     0.0613597  
C550     C      0.563500000000     0.094250000000     0.409150000000    -0.0293032  
C551     C      0.637780000000     0.155440000000     0.378800000000     0.06092    
C552     C      0.666090000000     0.195540000000     0.374520000000    -0.0435933  
C553     C      0.612970000000     0.166020000000     0.371420000000    -0.0561151  
C554     C      0.693510000000     0.204910000000     0.365360000000     0.0400489  
C555     C      0.690340000000     0.169840000000     0.326090000000    -0.00700786 
C556     C      0.616650000000     0.123720000000     0.411050000000    -0.0564828  
C557     C      0.571500000000     0.419790000000     0.090830000000    -0.0303443  
C558     C      0.660890000000     0.375880000000     0.200710000000    -0.0293578  
C559     C      0.671640000000     0.318880000000     0.183200000000    -0.00810483 
C560     C      0.671840000000     0.355100000000     0.221630000000    -0.00811874 
C561     C      0.602760000000     0.379550000000     0.163900000000    -0.0540726  
C562     C      0.628010000000     0.417570000000     0.129080000000    -0.0537594  
C563     C      0.630200000000     0.380170000000     0.162930000000     0.06159    
C564     C      0.660530000000     0.341360000000     0.164060000000    -0.0295738  
C565     C      0.600560000000     0.416910000000     0.130010000000     0.0612711  
C566     C      0.568660000000     0.454330000000     0.127310000000    -0.0437973  
C567     C      0.587970000000     0.397700000000     0.147570000000    -0.0562277  
C568     C      0.557250000000     0.476290000000     0.107560000000     0.0404851  
C569     C      0.560980000000     0.439980000000     0.069160000000    -0.00709668 
C570     C      0.642790000000     0.399370000000     0.145350000000    -0.0564007  
C571     C      0.908130000000     0.126070000000     0.085260000000    -0.0302513  
C572     C      0.828670000000     0.171880000000     0.203310000000    -0.0294783  
C573     C      0.819860000000     0.230220000000     0.189650000000    -0.00847849 
C574     C      0.819940000000     0.192320000000     0.225730000000    -0.00833472 
C575     C      0.883080000000     0.165170000000     0.161690000000    -0.0542075  
C576     C      0.852350000000     0.132950000000     0.125970000000    -0.0537794  
C577     C      0.855720000000     0.167560000000     0.162560000000     0.0616443  
C578     C      0.828720000000     0.208610000000     0.168380000000    -0.0294436  
C579     C      0.879710000000     0.130670000000     0.125020000000     0.0613152  
C580     C      0.905270000000     0.088660000000     0.119130000000    -0.0437671  
C581     C      0.895060000000     0.146850000000     0.143140000000    -0.056219   
C582     C      0.913760000000     0.066860000000     0.097700000000     0.0406752  
C583     C      0.916170000000     0.105890000000     0.062360000000    -0.00737996 
C584     C      0.840360000000     0.151180000000     0.144600000000    -0.0563897  
C585     C      0.822710000000     0.372780000000     0.338260000000    -0.0306158  
C586     C      0.908690000000     0.416800000000     0.452240000000    -0.0290779  
C587     C      0.936010000000     0.462650000000     0.425040000000    -0.00853579 
C588     C      0.934980000000     0.426620000000     0.463910000000    -0.00864219 
C589     C      0.891090000000     0.386520000000     0.389840000000    -0.0542152  
C590     C      0.839380000000     0.402090000000     0.401430000000    -0.053749   
C591     C      0.886220000000     0.407670000000     0.409110000000     0.0617053  
C592     C      0.909700000000     0.450960000000     0.415410000000    -0.0291444  
C593     C      0.844260000000     0.381070000000     0.382030000000     0.0612133  
C594     C      0.820140000000     0.338320000000     0.374770000000    -0.0434899  
C595     C      0.870330000000     0.373240000000     0.376380000000    -0.0561948  
C596     C      0.793910000000     0.327010000000     0.364090000000     0.0397952  
C597     C      0.796670000000     0.363480000000     0.325620000000    -0.007182   
C598     C      0.860140000000     0.415340000000     0.414940000000    -0.0565192  
C599     C      0.906860000000     0.086250000000     0.415290000000    -0.0306428  
C600     C      0.824180000000     0.203670000000     0.370460000000    -0.0294147  
C601     C      0.818000000000     0.190740000000     0.311880000000    -0.00853062 
C602     C      0.815370000000     0.226380000000     0.350240000000    -0.0085743  
C603     C      0.880190000000     0.163350000000     0.377280000000    -0.0541147  
C604     C      0.850150000000     0.126050000000     0.408450000000    -0.0537179  
C605     C      0.852820000000     0.163730000000     0.374870000000     0.0614841  
C606     C      0.826630000000     0.169330000000     0.333450000000    -0.0293653  
C607     C      0.877530000000     0.125630000000     0.410800000000     0.0609508  
C608     C      0.903060000000     0.120090000000     0.452630000000    -0.043697   
C609     C      0.892520000000     0.144530000000     0.395090000000    -0.0560731  
C610     C      0.912030000000     0.098700000000     0.474230000000     0.0403052  
C611     C      0.915810000000     0.063470000000     0.435340000000    -0.00700355 
C612     C      0.837810000000     0.144910000000     0.390660000000    -0.0564271  
C613     C      0.572940000000     0.454110000000     0.413870000000    -0.0307934  
C614     C      0.659510000000     0.339520000000     0.371300000000    -0.0293753  
C615     C      0.670750000000     0.354920000000     0.314120000000    -0.00793312 
C616     C      0.669540000000     0.317400000000     0.351150000000    -0.00818859 
C617     C      0.603170000000     0.379410000000     0.374350000000    -0.0540692  
C618     C      0.630190000000     0.414990000000     0.410230000000    -0.0537355  
C619     C      0.630640000000     0.379270000000     0.374540000000     0.0616024  
C620     C      0.660650000000     0.375380000000     0.335890000000    -0.0294743  
C621     C      0.602720000000     0.415130000000     0.410030000000     0.0611123  
C622     C      0.573510000000     0.418300000000     0.449340000000    -0.0439693  
C623     C      0.589240000000     0.397130000000     0.391930000000    -0.0560991  
C624     C      0.563140000000     0.438430000000     0.471410000000     0.0410198  
C625     C      0.562750000000     0.476010000000     0.434170000000    -0.00663148 
C626     C      0.644120000000     0.397230000000     0.392660000000    -0.0564745  
C627     C      0.907230000000     0.452460000000     0.118720000000    -0.0302001  
C628     C      0.823740000000     0.336830000000     0.164750000000    -0.0294477  
C629     C      0.813980000000     0.352510000000     0.222160000000    -0.00903736 
C630     C      0.814070000000     0.314930000000     0.185360000000    -0.00864188 
C631     C      0.880050000000     0.377100000000     0.159700000000    -0.0540197  
C632     C      0.851990000000     0.411450000000     0.123550000000    -0.0535618  
C633     C      0.852570000000     0.376580000000     0.160160000000     0.0610011  
C634     C      0.823740000000     0.372880000000     0.200000000000    -0.0293598  
C635     C      0.879470000000     0.411920000000     0.123050000000     0.0606692  
C636     C      0.909430000000     0.415900000000     0.084100000000    -0.0436874  
C637     C      0.893460000000     0.394610000000     0.141390000000    -0.056012   
C638     C      0.919680000000     0.436170000000     0.061930000000     0.0400953  
C639     C      0.916570000000     0.474490000000     0.098120000000    -0.00798157 
C640     C      0.838580000000     0.394000000000     0.141920000000    -0.0562713  
C641     C      0.951310000000     0.475350000000     0.562380000000     0.386781   
C642     C      0.948510000000     0.064600000000     0.973300000000     0.388114   
C643     C      0.948670000000     0.067610000000     0.562030000000     0.388194   
C644     C      0.958400000000     0.471120000000     0.969390000000     0.388665   
C645     C      0.529900000000     0.475870000000     0.971770000000     0.396049   
C646     C      0.518720000000     0.074860000000     0.570200000000     0.394114   
C647     C      0.526800000000     0.476170000000     0.567740000000     0.395797   
C648     C      0.517480000000     0.076030000000     0.964800000000     0.393947   
C649     C      0.780450000000     0.315170000000     0.722300000000     0.383729   
C650     C      0.782210000000     0.225580000000     0.812720000000     0.386001   
C651     C      0.773230000000     0.319190000000     0.818610000000     0.391532   
C652     C      0.784190000000     0.227240000000     0.724410000000     0.383731   
C653     C      0.713660000000     0.216040000000     0.714940000000     0.396168   
C654     C      0.703060000000     0.316640000000     0.814260000000     0.393716   
C655     C      0.704570000000     0.317380000000     0.720650000000     0.393401   
C656     C      0.712960000000     0.215010000000     0.819530000000     0.395938   
C657     C      0.666070000000     0.197170000000     0.660610000000    -0.0307192  
C658     C      0.566980000000     0.092370000000     0.624460000000    -0.0292734  
C659     C      0.540910000000     0.119950000000     0.578250000000    -0.00843182 
C660     C      0.539540000000     0.083000000000     0.615720000000    -0.00842924 
C661     C      0.592000000000     0.153770000000     0.650940000000    -0.0541775  
C662     C      0.641600000000     0.135350000000     0.634280000000    -0.0536149  
C663     C      0.594040000000     0.133260000000     0.630450000000     0.0615825  
C664     C      0.568280000000     0.127840000000     0.588630000000    -0.0294161  
C665     C      0.639560000000     0.155930000000     0.654710000000     0.0609348  
C666     C      0.665510000000     0.161540000000     0.696340000000    -0.0437194  
C667     C      0.614510000000     0.165060000000     0.663030000000    -0.056025   
C668     C      0.692670000000     0.170240000000     0.707030000000     0.040057   
C669     C      0.693320000000     0.207140000000     0.669290000000    -0.00683722 
C670     C      0.619080000000     0.124040000000     0.622200000000    -0.0564523  
C671     C      0.663000000000     0.162170000000     0.836820000000    -0.0308651  
C672     C      0.566480000000     0.128950000000     0.945710000000    -0.0294886  
C673     C      0.536010000000     0.085600000000     0.918400000000    -0.00845188 
C674     C      0.539110000000     0.121510000000     0.956540000000    -0.00864218 
C675     C      0.590260000000     0.155450000000     0.883760000000    -0.0540325  
C676     C      0.639370000000     0.134270000000     0.898680000000    -0.0537193  
C677     C      0.591850000000     0.134290000000     0.903640000000     0.0613527  
C678     C      0.563500000000     0.094250000000     0.909150000000    -0.0292992  
C679     C      0.637780000000     0.155440000000     0.878800000000     0.0609321  
C680     C      0.666090000000     0.195540000000     0.874520000000    -0.0436486  
C681     C      0.612970000000     0.166020000000     0.871420000000    -0.0561155  
C682     C      0.693510000000     0.204910000000     0.865360000000     0.0400553  
C683     C      0.690340000000     0.169840000000     0.826090000000    -0.0070085  
C684     C      0.616650000000     0.123720000000     0.911040000000    -0.0564228  
C685     C      0.571500000000     0.419790000000     0.590830000000    -0.0303137  
C686     C      0.660890000000     0.375880000000     0.700710000000    -0.0293576  
C687     C      0.671640000000     0.318880000000     0.683200000000    -0.00812164 
C688     C      0.671840000000     0.355100000000     0.721630000000    -0.00813097 
C689     C      0.602760000000     0.379550000000     0.663900000000    -0.054056   
C690     C      0.628010000000     0.417570000000     0.629070000000    -0.0538132  
C691     C      0.630200000000     0.380170000000     0.662930000000     0.0615863  
C692     C      0.660530000000     0.341360000000     0.664060000000    -0.0295404  
C693     C      0.600560000000     0.416910000000     0.630010000000     0.0613377  
C694     C      0.568660000000     0.454330000000     0.627310000000    -0.0437957  
C695     C      0.587970000000     0.397700000000     0.647560000000    -0.0562631  
C696     C      0.557250000000     0.476290000000     0.607560000000     0.0404786  
C697     C      0.560980000000     0.439980000000     0.569160000000    -0.00709744 
C698     C      0.642790000000     0.399370000000     0.645350000000    -0.056366   
C699     C      0.908130000000     0.126070000000     0.585260000000    -0.0302392  
C700     C      0.828670000000     0.171880000000     0.703310000000    -0.029481   
C701     C      0.819860000000     0.230220000000     0.689650000000    -0.00847623 
C702     C      0.819940000000     0.192320000000     0.725730000000    -0.00833487 
C703     C      0.883080000000     0.165170000000     0.661690000000    -0.0541992  
C704     C      0.852350000000     0.132950000000     0.625970000000    -0.0537691  
C705     C      0.855720000000     0.167560000000     0.662560000000     0.0616473  
C706     C      0.828720000000     0.208610000000     0.668380000000    -0.0294493  
C707     C      0.879710000000     0.130670000000     0.625020000000     0.0613296  
C708     C      0.905270000000     0.088660000000     0.619130000000    -0.0437663  
C709     C      0.895060000000     0.146850000000     0.643140000000    -0.0562168  
C710     C      0.913760000000     0.066860000000     0.597700000000     0.0406691  
C711     C      0.916170000000     0.105890000000     0.562360000000    -0.00740136 
C712     C      0.840360000000     0.151180000000     0.644600000000    -0.0563759  
C713     C      0.822710000000     0.372780000000     0.838260000000    -0.0306304  
C714     C      0.908690000000     0.416800000000     0.952250000000    -0.0291589  
C715     C      0.936010000000     0.462650000000     0.925040000000    -0.00854029 
C716     C      0.934980000000     0.426620000000     0.963910000000    -0.0086101  
C717     C      0.891090000000     0.386520000000     0.889840000000    -0.0541932  
C718     C      0.839380000000     0.402090000000     0.901430000000    -0.0537417  
C719     C      0.886220000000     0.407670000000     0.909110000000     0.0617121  
C720     C      0.909700000000     0.450960000000     0.915410000000    -0.029103   
C721     C      0.844260000000     0.381070000000     0.882030000000     0.0612404  
C722     C      0.820140000000     0.338320000000     0.874770000000    -0.0434717  
C723     C      0.870330000000     0.373240000000     0.876370000000    -0.0562379  
C724     C      0.793910000000     0.327010000000     0.864090000000     0.0397301  
C725     C      0.796670000000     0.363480000000     0.825620000000    -0.00714237 
C726     C      0.860140000000     0.415340000000     0.914940000000    -0.0564992  
C727     C      0.906860000000     0.086250000000     0.915290000000    -0.0306423  
C728     C      0.824180000000     0.203670000000     0.870460000000    -0.0293806  
C729     C      0.818000000000     0.190740000000     0.811880000000    -0.00853343 
C730     C      0.815370000000     0.226380000000     0.850250000000    -0.00866144 
C731     C      0.880190000000     0.163350000000     0.877280000000    -0.0541139  
C732     C      0.850150000000     0.126050000000     0.908440000000    -0.0536565  
C733     C      0.852820000000     0.163730000000     0.874870000000     0.0614951  
C734     C      0.826630000000     0.169330000000     0.833450000000    -0.029365   
C735     C      0.877530000000     0.125630000000     0.910800000000     0.0609367  
C736     C      0.903060000000     0.120090000000     0.952630000000    -0.0436836  
C737     C      0.892520000000     0.144530000000     0.895090000000    -0.0560556  
C738     C      0.912030000000     0.098700000000     0.974230000000     0.0402492  
C739     C      0.915810000000     0.063470000000     0.935340000000    -0.00700758 
C740     C      0.837810000000     0.144910000000     0.890660000000    -0.0564272  
C741     C      0.572940000000     0.454110000000     0.913870000000    -0.0307918  
C742     C      0.659510000000     0.339520000000     0.871300000000    -0.0293833  
C743     C      0.670750000000     0.354920000000     0.814120000000    -0.00792722 
C744     C      0.669540000000     0.317400000000     0.851150000000    -0.00818115 
C745     C      0.603170000000     0.379410000000     0.874350000000    -0.0540685  
C746     C      0.630190000000     0.414990000000     0.910230000000    -0.0536798  
C747     C      0.630640000000     0.379270000000     0.874540000000     0.0616142  
C748     C      0.660650000000     0.375380000000     0.835890000000    -0.0294793  
C749     C      0.602720000000     0.415130000000     0.910030000000     0.0611062  
C750     C      0.573510000000     0.418300000000     0.949340000000    -0.0439502  
C751     C      0.589240000000     0.397130000000     0.891930000000    -0.0560865  
C752     C      0.563140000000     0.438430000000     0.971410000000     0.0409412  
C753     C      0.562750000000     0.476010000000     0.934170000000    -0.0066368  
C754     C      0.644120000000     0.397230000000     0.892660000000    -0.0564807  
C755     C      0.907230000000     0.452460000000     0.618720000000    -0.030202   
C756     C      0.823740000000     0.336830000000     0.664750000000    -0.0294514  
C757     C      0.813980000000     0.352510000000     0.722160000000    -0.0090496  
C758     C      0.814070000000     0.314930000000     0.685360000000    -0.00864755 
C759     C      0.880050000000     0.377100000000     0.659700000000    -0.0540117  
C760     C      0.851990000000     0.411450000000     0.623550000000    -0.0535519  
C761     C      0.852570000000     0.376580000000     0.660160000000     0.0610044  
C762     C      0.823740000000     0.372880000000     0.700000000000    -0.0293596  
C763     C      0.879470000000     0.411920000000     0.623050000000     0.0606822  
C764     C      0.909430000000     0.415900000000     0.584100000000    -0.0436767  
C765     C      0.893460000000     0.394610000000     0.641390000000    -0.0560089  
C766     C      0.919680000000     0.436170000000     0.561930000000     0.0400509  
C767     C      0.916570000000     0.474490000000     0.598120000000    -0.00797836 
C768     C      0.838580000000     0.394000000000     0.641920000000    -0.056258   
C769     C      0.951310000000     0.975350000000     0.062380000000     0.386595   
C770     C      0.948510000000     0.564600000000     0.473300000000     0.388185   
C771     C      0.948670000000     0.567610000000     0.062030000000     0.388265   
C772     C      0.958400000000     0.971120000000     0.469390000000     0.388888   
C773     C      0.529900000000     0.975870000000     0.471770000000     0.396058   
C774     C      0.518720000000     0.574860000000     0.070200000000     0.394135   
C775     C      0.526800000000     0.976170000000     0.067740000000     0.395986   
C776     C      0.517480000000     0.576030000000     0.464800000000     0.393955   
C777     C      0.780450000000     0.815170000000     0.222300000000     0.383956   
C778     C      0.782210000000     0.725580000000     0.312720000000     0.385947   
C779     C      0.773230000000     0.819190000000     0.318610000000     0.391603   
C780     C      0.784190000000     0.727240000000     0.224410000000     0.383732   
C781     C      0.713660000000     0.716040000000     0.214940000000     0.396167   
C782     C      0.703060000000     0.816640000000     0.314260000000     0.393437   
C783     C      0.704570000000     0.817380000000     0.220650000000     0.393394   
C784     C      0.712960000000     0.715010000000     0.319530000000     0.396021   
C785     C      0.666070000000     0.697170000000     0.160610000000    -0.030686   
C786     C      0.566980000000     0.592370000000     0.124460000000    -0.0292681  
C787     C      0.540910000000     0.619950000000     0.078250000000    -0.00843586 
C788     C      0.539540000000     0.583000000000     0.115720000000    -0.00843941 
C789     C      0.592000000000     0.653770000000     0.150940000000    -0.0541787  
C790     C      0.641600000000     0.635350000000     0.134280000000    -0.0536186  
C791     C      0.594040000000     0.633260000000     0.130450000000     0.0615815  
C792     C      0.568280000000     0.627840000000     0.088630000000    -0.0293877  
C793     C      0.639560000000     0.655930000000     0.154710000000     0.0609358  
C794     C      0.665510000000     0.661540000000     0.196340000000    -0.0437173  
C795     C      0.614510000000     0.665060000000     0.163030000000    -0.0560259  
C796     C      0.692670000000     0.670240000000     0.207030000000     0.0400489  
C797     C      0.693320000000     0.707140000000     0.169290000000    -0.00684846 
C798     C      0.619080000000     0.624040000000     0.122200000000    -0.0564531  
C799     C      0.663000000000     0.662170000000     0.336820000000    -0.0308453  
C800     C      0.566480000000     0.628950000000     0.445710000000    -0.0295126  
C801     C      0.536010000000     0.585600000000     0.418400000000    -0.00847657 
C802     C      0.539110000000     0.621510000000     0.456540000000    -0.00857411 
C803     C      0.590260000000     0.655450000000     0.383760000000    -0.054043   
C804     C      0.639370000000     0.634270000000     0.398680000000    -0.0537034  
C805     C      0.591850000000     0.634290000000     0.403640000000     0.061369   
C806     C      0.563500000000     0.594250000000     0.409150000000    -0.0292924  
C807     C      0.637780000000     0.655440000000     0.378800000000     0.0609275  
C808     C      0.666090000000     0.695540000000     0.374520000000    -0.0436065  
C809     C      0.612970000000     0.666020000000     0.371420000000    -0.0561102  
C810     C      0.693510000000     0.704910000000     0.365360000000     0.0400858  
C811     C      0.690340000000     0.669840000000     0.326090000000    -0.00706343 
C812     C      0.616650000000     0.623720000000     0.411050000000    -0.0564715  
C813     C      0.571500000000     0.919790000000     0.090830000000    -0.0303426  
C814     C      0.660890000000     0.875880000000     0.200710000000    -0.0293619  
C815     C      0.671640000000     0.818880000000     0.183200000000    -0.00811633 
C816     C      0.671840000000     0.855100000000     0.221630000000    -0.00812416 
C817     C      0.602760000000     0.879550000000     0.163900000000    -0.0540632  
C818     C      0.628010000000     0.917570000000     0.129080000000    -0.0537424  
C819     C      0.630200000000     0.880170000000     0.162930000000     0.0615947  
C820     C      0.660530000000     0.841360000000     0.164060000000    -0.0295739  
C821     C      0.600560000000     0.916910000000     0.130010000000     0.0612885  
C822     C      0.568660000000     0.954330000000     0.127310000000    -0.0439457  
C823     C      0.587970000000     0.897700000000     0.147570000000    -0.0562229  
C824     C      0.557250000000     0.976290000000     0.107560000000     0.0410327  
C825     C      0.560980000000     0.939980000000     0.069160000000    -0.00712133 
C826     C      0.642790000000     0.899370000000     0.145350000000    -0.0563852  
C827     C      0.908130000000     0.626070000000     0.085260000000    -0.0302364  
C828     C      0.828670000000     0.671880000000     0.203310000000    -0.0295173  
C829     C      0.819860000000     0.730220000000     0.189650000000    -0.00848903 
C830     C      0.819940000000     0.692320000000     0.225730000000    -0.00831995 
C831     C      0.883080000000     0.665170000000     0.161690000000    -0.0541783  
C832     C      0.852350000000     0.632950000000     0.125970000000    -0.0537823  
C833     C      0.855720000000     0.667560000000     0.162560000000     0.0616023  
C834     C      0.828720000000     0.708610000000     0.168380000000    -0.029408   
C835     C      0.879710000000     0.630670000000     0.125020000000     0.0613328  
C836     C      0.905270000000     0.588660000000     0.119130000000    -0.043775   
C837     C      0.895060000000     0.646850000000     0.143140000000    -0.0562268  
C838     C      0.913760000000     0.566860000000     0.097700000000     0.0406801  
C839     C      0.916170000000     0.605890000000     0.062360000000    -0.00743478 
C840     C      0.840360000000     0.651180000000     0.144600000000    -0.0563587  
C841     C      0.822710000000     0.872780000000     0.338260000000    -0.0306731  
C842     C      0.908690000000     0.916800000000     0.452240000000    -0.029103   
C843     C      0.936010000000     0.962650000000     0.425040000000    -0.00857389 
C844     C      0.934980000000     0.926620000000     0.463910000000    -0.00861959 
C845     C      0.891090000000     0.886530000000     0.389840000000    -0.054219   
C846     C      0.839380000000     0.902090000000     0.401430000000    -0.0537287  
C847     C      0.886220000000     0.907670000000     0.409110000000     0.061736   
C848     C      0.909700000000     0.950960000000     0.415410000000    -0.0291318  
C849     C      0.844260000000     0.881070000000     0.382030000000     0.0612211  
C850     C      0.820140000000     0.838320000000     0.374770000000    -0.0434937  
C851     C      0.870330000000     0.873240000000     0.376380000000    -0.0561946  
C852     C      0.793910000000     0.827010000000     0.364090000000     0.0397911  
C853     C      0.796670000000     0.863470000000     0.325620000000    -0.00705069 
C854     C      0.860140000000     0.915340000000     0.414940000000    -0.0565171  
C855     C      0.906860000000     0.586250000000     0.415290000000    -0.0306345  
C856     C      0.824180000000     0.703670000000     0.370460000000    -0.0293977  
C857     C      0.818000000000     0.690740000000     0.311880000000    -0.00848135 
C858     C      0.815370000000     0.726380000000     0.350240000000    -0.00862528 
C859     C      0.880190000000     0.663350000000     0.377280000000    -0.0541075  
C860     C      0.850150000000     0.626050000000     0.408450000000    -0.0537086  
C861     C      0.852820000000     0.663730000000     0.374870000000     0.0614865  
C862     C      0.826630000000     0.669330000000     0.333450000000    -0.0293838  
C863     C      0.877530000000     0.625630000000     0.410800000000     0.0609637  
C864     C      0.903060000000     0.620090000000     0.452630000000    -0.0436962  
C865     C      0.892520000000     0.644530000000     0.395090000000    -0.056071   
C866     C      0.912030000000     0.598700000000     0.474230000000     0.0402962  
C867     C      0.915810000000     0.563470000000     0.435340000000    -0.00701798 
C868     C      0.837810000000     0.644910000000     0.390660000000    -0.0564145  
C869     C      0.572940000000     0.954110000000     0.413870000000    -0.0307838  
C870     C      0.659510000000     0.839520000000     0.371300000000    -0.0293649  
C871     C      0.670750000000     0.854930000000     0.314120000000    -0.00798793 
C872     C      0.669540000000     0.817400000000     0.351150000000    -0.00822848 
C873     C      0.603170000000     0.879410000000     0.374350000000    -0.0540601  
C874     C      0.630190000000     0.914990000000     0.410230000000    -0.0537241  
C875     C      0.630640000000     0.879270000000     0.374540000000     0.0616067  
C876     C      0.660650000000     0.875380000000     0.335890000000    -0.0294529  
C877     C      0.602720000000     0.915130000000     0.410030000000     0.0611268  
C878     C      0.573510000000     0.918300000000     0.449340000000    -0.0439685  
C879     C      0.589240000000     0.897130000000     0.391930000000    -0.0560957  
C880     C      0.563140000000     0.938430000000     0.471410000000     0.04101    
C881     C      0.562750000000     0.976010000000     0.434170000000    -0.00665071 
C882     C      0.644120000000     0.897230000000     0.392660000000    -0.0564603  
C883     C      0.907230000000     0.952460000000     0.118720000000    -0.0301623  
C884     C      0.823740000000     0.836830000000     0.164750000000    -0.0294513  
C885     C      0.813980000000     0.852510000000     0.222160000000    -0.00900609 
C886     C      0.814070000000     0.814930000000     0.185360000000    -0.00864078 
C887     C      0.880050000000     0.877100000000     0.159700000000    -0.05401    
C888     C      0.851990000000     0.911450000000     0.123550000000    -0.0535507  
C889     C      0.852570000000     0.876580000000     0.160160000000     0.0610051  
C890     C      0.823740000000     0.872880000000     0.200000000000    -0.0293785  
C891     C      0.879470000000     0.911920000000     0.123050000000     0.0606861  
C892     C      0.909430000000     0.915900000000     0.084100000000    -0.043686   
C893     C      0.893460000000     0.894610000000     0.141390000000    -0.0560088  
C894     C      0.919680000000     0.936170000000     0.061930000000     0.0400847  
C895     C      0.916570000000     0.974490000000     0.098120000000    -0.00801648 
C896     C      0.838580000000     0.894000000000     0.141920000000    -0.0562558  
C897     C      0.951310000000     0.975350000000     0.562380000000     0.386759   
C898     C      0.948510000000     0.564600000000     0.973300000000     0.388157   
C899     C      0.948670000000     0.567610000000     0.562030000000     0.388294   
C900     C      0.958400000000     0.971120000000     0.969390000000     0.388864   
C901     C      0.529900000000     0.975870000000     0.971770000000     0.396027   
C902     C      0.518720000000     0.574860000000     0.570200000000     0.394159   
C903     C      0.526800000000     0.976170000000     0.567740000000     0.396011   
C904     C      0.517480000000     0.576030000000     0.964800000000     0.393925   
C905     C      0.780450000000     0.815170000000     0.722300000000     0.383728   
C906     C      0.782210000000     0.725580000000     0.812720000000     0.385945   
C907     C      0.773230000000     0.819190000000     0.818610000000     0.391532   
C908     C      0.784190000000     0.727240000000     0.724410000000     0.383731   
C909     C      0.713660000000     0.716040000000     0.714940000000     0.396165   
C910     C      0.703060000000     0.816640000000     0.814260000000     0.393569   
C911     C      0.704570000000     0.817380000000     0.720650000000     0.393175   
C912     C      0.712960000000     0.715010000000     0.819530000000     0.396019   
C913     C      0.666070000000     0.697170000000     0.660610000000    -0.030687   
C914     C      0.566980000000     0.592370000000     0.624460000000    -0.0292739  
C915     C      0.540910000000     0.619950000000     0.578250000000    -0.00842595 
C916     C      0.539540000000     0.583000000000     0.615720000000    -0.00843339 
C917     C      0.592000000000     0.653770000000     0.650940000000    -0.0541726  
C918     C      0.641600000000     0.635350000000     0.634280000000    -0.0536027  
C919     C      0.594040000000     0.633260000000     0.630450000000     0.0615897  
C920     C      0.568280000000     0.627840000000     0.588630000000    -0.0294211  
C921     C      0.639560000000     0.655930000000     0.654710000000     0.0609429  
C922     C      0.665510000000     0.661540000000     0.696340000000    -0.0437184  
C923     C      0.614510000000     0.665060000000     0.663030000000    -0.0560206  
C924     C      0.692670000000     0.670240000000     0.707030000000     0.0400473  
C925     C      0.693320000000     0.707140000000     0.669290000000    -0.00685094 
C926     C      0.619080000000     0.624040000000     0.622200000000    -0.0564422  
C927     C      0.663000000000     0.662170000000     0.836820000000    -0.0308469  
C928     C      0.566480000000     0.628950000000     0.945710000000    -0.0295129  
C929     C      0.536010000000     0.585600000000     0.918400000000    -0.00849492 
C930     C      0.539110000000     0.621510000000     0.956540000000    -0.00857995 
C931     C      0.590260000000     0.655450000000     0.883760000000    -0.0540276  
C932     C      0.639370000000     0.634270000000     0.898680000000    -0.0537028  
C933     C      0.591850000000     0.634290000000     0.903640000000     0.061362   
C934     C      0.563500000000     0.594250000000     0.909150000000    -0.0292884  
C935     C      0.637780000000     0.655440000000     0.878800000000     0.0609397  
C936     C      0.666090000000     0.695540000000     0.874520000000    -0.0436617  
C937     C      0.612970000000     0.666020000000     0.871420000000    -0.0561105  
C938     C      0.693510000000     0.704910000000     0.865360000000     0.0400922  
C939     C      0.690340000000     0.669840000000     0.826090000000    -0.00706407 
C940     C      0.616650000000     0.623720000000     0.911040000000    -0.0564115  
C941     C      0.571500000000     0.919790000000     0.590830000000    -0.0303119  
C942     C      0.660890000000     0.875880000000     0.700710000000    -0.0293618  
C943     C      0.671640000000     0.818880000000     0.683200000000    -0.00813313 
C944     C      0.671840000000     0.855100000000     0.721630000000    -0.00813638 
C945     C      0.602760000000     0.879550000000     0.663900000000    -0.0540466  
C946     C      0.628010000000     0.917570000000     0.629070000000    -0.0537962  
C947     C      0.630200000000     0.880170000000     0.662930000000     0.0615911  
C948     C      0.660530000000     0.841360000000     0.664060000000    -0.0295406  
C949     C      0.600560000000     0.916910000000     0.630010000000     0.0613551  
C950     C      0.568660000000     0.954330000000     0.627310000000    -0.0439443  
C951     C      0.587970000000     0.897700000000     0.647560000000    -0.0562584  
C952     C      0.557250000000     0.976290000000     0.607560000000     0.0410273  
C953     C      0.560980000000     0.939980000000     0.569160000000    -0.00712202 
C954     C      0.642790000000     0.899370000000     0.645350000000    -0.0563505  
C955     C      0.908130000000     0.626070000000     0.585260000000    -0.0302243  
C956     C      0.828670000000     0.671880000000     0.703310000000    -0.02952    
C957     C      0.819860000000     0.730220000000     0.689650000000    -0.00848677 
C958     C      0.819940000000     0.692320000000     0.725730000000    -0.0083201  
C959     C      0.883080000000     0.665170000000     0.661690000000    -0.05417    
C960     C      0.852350000000     0.632950000000     0.625970000000    -0.0537719  
C961     C      0.855720000000     0.667560000000     0.662560000000     0.0616053  
C962     C      0.828720000000     0.708610000000     0.668380000000    -0.0294138  
C963     C      0.879710000000     0.630670000000     0.625020000000     0.0613473  
C964     C      0.905270000000     0.588660000000     0.619130000000    -0.0437741  
C965     C      0.895060000000     0.646850000000     0.643140000000    -0.0562247  
C966     C      0.913760000000     0.566860000000     0.597700000000     0.0406738  
C967     C      0.916170000000     0.605890000000     0.562360000000    -0.00745623 
C968     C      0.840360000000     0.651180000000     0.644600000000    -0.0563448  
C969     C      0.822710000000     0.872780000000     0.838260000000    -0.0306878  
C970     C      0.908690000000     0.916800000000     0.952250000000    -0.029184   
C971     C      0.936010000000     0.962650000000     0.925040000000    -0.00857843 
C972     C      0.934980000000     0.926620000000     0.963910000000    -0.00858748 
C973     C      0.891090000000     0.886530000000     0.889840000000    -0.0541971  
C974     C      0.839380000000     0.902090000000     0.901430000000    -0.0537214  
C975     C      0.886220000000     0.907670000000     0.909110000000     0.0617428  
C976     C      0.909700000000     0.950960000000     0.915410000000    -0.0290904  
C977     C      0.844260000000     0.881070000000     0.882030000000     0.0612482  
C978     C      0.820140000000     0.838320000000     0.874770000000    -0.0434756  
C979     C      0.870330000000     0.873240000000     0.876370000000    -0.0562376  
C980     C      0.793910000000     0.827010000000     0.864090000000     0.039726   
C981     C      0.796670000000     0.863470000000     0.825620000000    -0.00701101 
C982     C      0.860140000000     0.915340000000     0.914940000000    -0.0564971  
C983     C      0.906860000000     0.586250000000     0.915290000000    -0.0306341  
C984     C      0.824180000000     0.703670000000     0.870460000000    -0.0293636  
C985     C      0.818000000000     0.690740000000     0.811880000000    -0.00848416 
C986     C      0.815370000000     0.726380000000     0.850250000000    -0.00871236 
C987     C      0.880190000000     0.663350000000     0.877280000000    -0.0541067  
C988     C      0.850150000000     0.626050000000     0.908440000000    -0.0536471  
C989     C      0.852820000000     0.663730000000     0.874870000000     0.0614975  
C990     C      0.826630000000     0.669330000000     0.833450000000    -0.0293834  
C991     C      0.877530000000     0.625630000000     0.910800000000     0.0609496  
C992     C      0.903060000000     0.620090000000     0.952630000000    -0.0436828  
C993     C      0.892520000000     0.644530000000     0.895090000000    -0.0560534  
C994     C      0.912030000000     0.598700000000     0.974230000000     0.0402402  
C995     C      0.915810000000     0.563470000000     0.935340000000    -0.00702203 
C996     C      0.837810000000     0.644910000000     0.890660000000    -0.0564146  
C997     C      0.572940000000     0.954110000000     0.913870000000    -0.0307822  
C998     C      0.659510000000     0.839520000000     0.871300000000    -0.0293729  
C999     C      0.670750000000     0.854930000000     0.814120000000    -0.00798203 
C1000    C      0.669540000000     0.817400000000     0.851150000000    -0.00822105 
C1001    C      0.603170000000     0.879410000000     0.874350000000    -0.0540595  
C1002    C      0.630190000000     0.914990000000     0.910230000000    -0.0536684  
C1003    C      0.630640000000     0.879270000000     0.874540000000     0.0616185  
C1004    C      0.660650000000     0.875380000000     0.835890000000    -0.0294579  
C1005    C      0.602720000000     0.915130000000     0.910030000000     0.0611207  
C1006    C      0.573510000000     0.918300000000     0.949340000000    -0.0439494  
C1007    C      0.589240000000     0.897130000000     0.891930000000    -0.0560831  
C1008    C      0.563140000000     0.938430000000     0.971410000000     0.0409315  
C1009    C      0.562750000000     0.976010000000     0.934170000000    -0.00665601 
C1010    C      0.644120000000     0.897230000000     0.892660000000    -0.0564665  
C1011    C      0.907230000000     0.952460000000     0.618720000000    -0.0301642  
C1012    C      0.823740000000     0.836830000000     0.664750000000    -0.029455   
C1013    C      0.813980000000     0.852510000000     0.722160000000    -0.00901833 
C1014    C      0.814070000000     0.814930000000     0.685360000000    -0.00864645 
C1015    C      0.880050000000     0.877100000000     0.659700000000    -0.054002   
C1016    C      0.851990000000     0.911450000000     0.623550000000    -0.0535409  
C1017    C      0.852570000000     0.876580000000     0.660160000000     0.0610083  
C1018    C      0.823740000000     0.872880000000     0.700000000000    -0.0293783  
C1019    C      0.879470000000     0.911920000000     0.623050000000     0.0606992  
C1020    C      0.909430000000     0.915900000000     0.584100000000    -0.0436752  
C1021    C      0.893460000000     0.894610000000     0.641390000000    -0.0560058  
C1022    C      0.919680000000     0.936170000000     0.561930000000     0.0400403  
C1023    C      0.916570000000     0.974490000000     0.598120000000    -0.00801333 
C1024    C      0.838580000000     0.894000000000     0.641920000000    -0.0562426  
Co1      Co     0.492210000000     0.481480000000     0.518460000000     0.837205   
Co2      Co     0.989300000000     0.063760000000     0.017750000000     0.831949   
Co3      Co     0.488990000000     0.522770000000     0.058760000000     0.835098   
Co4      Co     0.991060000000     0.522160000000     0.477310000000     0.835323   
Co5      Co     0.241280000000     0.269320000000     0.226830000000     0.834372   
Co6      Co     0.240210000000     0.268820000000     0.308810000000     0.837605   
Co7      Co     0.241110000000     0.309890000000     0.268020000000     0.834515   
Co8      Co     0.242370000000     0.228110000000     0.267610000000     0.833836   
Co9      Co     0.492210000000     0.481480000000     0.018460000000     0.836325   
Co10     Co     0.989300000000     0.063760000000     0.517750000000     0.832806   
Co11     Co     0.488990000000     0.522770000000     0.558760000000     0.835069   
Co12     Co     0.991060000000     0.522160000000     0.977310000000     0.835932   
Co13     Co     0.241280000000     0.269320000000     0.726830000000     0.834339   
Co14     Co     0.240210000000     0.268820000000     0.808810000000     0.83759    
Co15     Co     0.241110000000     0.309890000000     0.768020000000     0.834564   
Co16     Co     0.242370000000     0.228110000000     0.767610000000     0.833834   
Co17     Co     0.492210000000     0.981480000000     0.518460000000     0.837882   
Co18     Co     0.989300000000     0.563770000000     0.017750000000     0.832002   
Co19     Co     0.488990000000     0.022770000000     0.058760000000     0.834263   
Co20     Co     0.991060000000     0.022160000000     0.477310000000     0.834435   
Co21     Co     0.241280000000     0.769320000000     0.226830000000     0.834403   
Co22     Co     0.240210000000     0.768820000000     0.308810000000     0.83759    
Co23     Co     0.241110000000     0.809890000000     0.268020000000     0.834429   
Co24     Co     0.242370000000     0.728110000000     0.267610000000     0.833834   
Co25     Co     0.492210000000     0.981480000000     0.018460000000     0.837001   
Co26     Co     0.989300000000     0.563770000000     0.517750000000     0.83286    
Co27     Co     0.488990000000     0.022770000000     0.558760000000     0.834232   
Co28     Co     0.991060000000     0.022160000000     0.977310000000     0.835043   
Co29     Co     0.241280000000     0.769320000000     0.726830000000     0.834369   
Co30     Co     0.240210000000     0.768820000000     0.808810000000     0.837575   
Co31     Co     0.241110000000     0.809890000000     0.768020000000     0.834478   
Co32     Co     0.242370000000     0.728110000000     0.767610000000     0.833832   
Co33     Co     0.992210000000     0.481480000000     0.518460000000     0.835177   
Co34     Co     0.489300000000     0.063760000000     0.017750000000     0.834059   
Co35     Co     0.988990000000     0.522770000000     0.058760000000     0.833048   
Co36     Co     0.491060000000     0.522160000000     0.477310000000     0.837381   
Co37     Co     0.741280000000     0.269320000000     0.226830000000     0.834375   
Co38     Co     0.740210000000     0.268820000000     0.308810000000     0.837612   
Co39     Co     0.741110000000     0.309890000000     0.268020000000     0.83453    
Co40     Co     0.742360000000     0.228110000000     0.267610000000     0.833903   
Co41     Co     0.992210000000     0.481480000000     0.018460000000     0.834299   
Co42     Co     0.489300000000     0.063760000000     0.517750000000     0.834918   
Co43     Co     0.988990000000     0.522770000000     0.558760000000     0.833018   
Co44     Co     0.491060000000     0.522160000000     0.977310000000     0.837986   
Co45     Co     0.741280000000     0.269320000000     0.726830000000     0.834341   
Co46     Co     0.740210000000     0.268820000000     0.808810000000     0.837598   
Co47     Co     0.741110000000     0.309890000000     0.768020000000     0.834579   
Co48     Co     0.742360000000     0.228110000000     0.767610000000     0.833902   
Co49     Co     0.992210000000     0.981480000000     0.518460000000     0.835859   
Co50     Co     0.489300000000     0.563770000000     0.017750000000     0.834113   
Co51     Co     0.988990000000     0.022770000000     0.058760000000     0.832215   
Co52     Co     0.491060000000     0.022160000000     0.477310000000     0.836491   
Co53     Co     0.741280000000     0.769320000000     0.226830000000     0.834405   
Co54     Co     0.740210000000     0.768820000000     0.308810000000     0.837597   
Co55     Co     0.741110000000     0.809890000000     0.268020000000     0.834443   
Co56     Co     0.742360000000     0.728110000000     0.267610000000     0.833902   
Co57     Co     0.992210000000     0.981480000000     0.018460000000     0.83498    
Co58     Co     0.489300000000     0.563770000000     0.517750000000     0.834974   
Co59     Co     0.988990000000     0.022770000000     0.558760000000     0.832183   
Co60     Co     0.491060000000     0.022160000000     0.977310000000     0.837094   
Co61     Co     0.741280000000     0.769320000000     0.726830000000     0.834371   
Co62     Co     0.740210000000     0.768820000000     0.808810000000     0.837582   
Co63     Co     0.741110000000     0.809890000000     0.768020000000     0.834492   
Co64     Co     0.742360000000     0.728110000000     0.767610000000     0.8339     
H1       H      0.121180000000     0.108170000000     0.106450000000     0.0413583  
H2       H      0.163690000000     0.201100000000     0.138040000000     0.0349444  
H3       H      0.162440000000     0.138960000000     0.200470000000     0.0403996  
H4       H      0.026440000000     0.134770000000     0.087180000000     0.0397378  
H5       H      0.208100000000     0.197650000000     0.155240000000     0.0390549  
H6       H      0.069220000000     0.088460000000     0.147060000000     0.0353215  
H7       H      0.071460000000     0.150390000000     0.084540000000     0.0348648  
H8       H      0.038160000000     0.060080000000     0.118650000000     0.0482528  
H9       H      0.192170000000     0.168520000000     0.229980000000     0.0378907  
H10      H      0.160730000000     0.128120000000     0.127700000000     0.0441542  
H11      H      0.194240000000     0.230070000000     0.166320000000     0.0457982  
H12      H      0.072880000000     0.161020000000     0.157510000000     0.0447817  
H13      H      0.150980000000     0.209550000000     0.171860000000     0.0382619  
H14      H      0.040480000000     0.122470000000     0.055380000000     0.0456367  
H15      H      0.081890000000     0.079660000000     0.113290000000     0.039614   
H16      H      0.083240000000     0.115850000000     0.076790000000     0.0383161  
H17      H      0.112370000000     0.180920000000     0.178780000000     0.0409062  
H18      H      0.150270000000     0.173180000000     0.208140000000     0.0406336  
H19      H      0.024930000000     0.092890000000     0.129690000000     0.039897   
H20      H      0.215970000000     0.143940000000     0.166800000000     0.0370516  
H21      H      0.118430000000     0.107360000000     0.426330000000     0.0410885  
H22      H      0.159130000000     0.139980000000     0.331610000000     0.0350198  
H23      H      0.164160000000     0.198370000000     0.397330000000     0.0405479  
H24      H      0.021400000000     0.096620000000     0.405270000000     0.0392967  
H25      H      0.204620000000     0.154110000000     0.333720000000     0.039599   
H26      H      0.070210000000     0.151340000000     0.450140000000     0.0349706  
H27      H      0.065120000000     0.090820000000     0.386420000000     0.0347958  
H28      H      0.039090000000     0.123740000000     0.479450000000     0.0455163  
H29      H      0.194590000000     0.227760000000     0.368830000000     0.0392211  
H30      H      0.158310000000     0.126030000000     0.404660000000     0.0440898  
H31      H      0.190130000000     0.168590000000     0.303110000000     0.0453712  
H32      H      0.071320000000     0.163760000000     0.377850000000     0.0446813  
H33      H      0.148130000000     0.175220000000     0.326010000000     0.0380301  
H34      H      0.033700000000     0.062910000000     0.414620000000     0.0465733  
H35      H      0.081390000000     0.116390000000     0.457030000000     0.0383253  
H36      H      0.078250000000     0.080780000000     0.419640000000     0.0383824  
H37      H      0.111180000000     0.182480000000     0.356250000000     0.0409635  
H38      H      0.151240000000     0.209210000000     0.364450000000     0.0409477  
H39      H      0.024780000000     0.136700000000     0.448010000000     0.0396593  
H40      H      0.215040000000     0.161040000000     0.387460000000     0.0370408  
H41      H      0.163980000000     0.400250000000     0.144210000000     0.0410577  
H42      H      0.084670000000     0.404660000000     0.080260000000     0.0353548  
H43      H      0.079650000000     0.464890000000     0.144240000000     0.0403818  
H44      H      0.155270000000     0.305330000000     0.190280000000     0.0396574  
H45      H      0.077790000000     0.448450000000     0.057180000000     0.041854   
H46      H      0.148820000000     0.391440000000     0.212100000000     0.0346243  
H47      H      0.148130000000     0.331070000000     0.148090000000     0.0348152  
H48      H      0.185620000000     0.366360000000     0.235530000000     0.046404   
H49      H      0.041590000000     0.487600000000     0.118980000000     0.0371658  
H50      H      0.137920000000     0.432120000000     0.115520000000     0.0443368  
H51      H      0.048450000000     0.428070000000     0.054490000000     0.0476681  
H52      H      0.092840000000     0.364880000000     0.177330000000     0.0447213  
H53      H      0.054850000000     0.408000000000     0.100100000000     0.0383765  
H54      H      0.185410000000     0.305690000000     0.171080000000     0.044796   
H55      H      0.177460000000     0.387060000000     0.190590000000     0.0381942  
H56      H      0.177000000000     0.352110000000     0.153330000000     0.0380217  
H57      H      0.066790000000     0.396600000000     0.148480000000     0.0410123  
H58      H      0.052150000000     0.442710000000     0.137040000000     0.0404057  
H59      H      0.155430000000     0.347230000000     0.234630000000     0.0391772  
H60      H      0.102710000000     0.488440000000     0.086320000000     0.0377402  
H61      H      0.319170000000     0.152490000000     0.144990000000     0.0416856  
H62      H      0.397290000000     0.143720000000     0.075660000000     0.0350485  
H63      H      0.392410000000     0.078620000000     0.134880000000     0.0401649  
H64      H      0.337460000000     0.241370000000     0.197530000000     0.0365965  
H65      H      0.398400000000     0.100400000000     0.050250000000     0.0408314  
H66      H      0.340810000000     0.155380000000     0.213200000000     0.0347519  
H67      H      0.340930000000     0.219260000000     0.152480000000     0.0345478  
H68      H      0.307320000000     0.181040000000     0.240760000000     0.0471945  
H69      H      0.426520000000     0.051600000000     0.108570000000     0.0388218  
H70      H      0.340320000000     0.120530000000     0.112230000000     0.0442931  
H71      H      0.429940000000     0.116770000000     0.048180000000     0.0476658  
H72      H      0.395110000000     0.177550000000     0.175470000000     0.0444515  
H73      H      0.426110000000     0.134500000000     0.095340000000     0.0390745  
H74      H      0.307150000000     0.245740000000     0.179100000000     0.0464391  
H75      H      0.311020000000     0.161880000000     0.194040000000     0.0404764  
H76      H      0.311100000000     0.199800000000     0.157950000000     0.0397162  
H77      H      0.416240000000     0.145350000000     0.142900000000     0.0412362  
H78      H      0.423040000000     0.096490000000     0.130070000000     0.0417134  
H79      H      0.337600000000     0.199770000000     0.237040000000     0.0367447  
H80      H      0.366860000000     0.066040000000     0.076180000000     0.0383825  
H81      H      0.355880000000     0.431610000000     0.429780000000     0.0410695  
H82      H      0.325440000000     0.395310000000     0.333690000000     0.0346709  
H83      H      0.321450000000     0.334880000000     0.397540000000     0.0404028  
H84      H      0.451760000000     0.454320000000     0.411420000000     0.0408389  
H85      H      0.281120000000     0.378440000000     0.331870000000     0.040276   
H86      H      0.406390000000     0.394270000000     0.457100000000     0.0351977  
H87      H      0.408130000000     0.454060000000     0.392630000000     0.0345611  
H88      H      0.433940000000     0.425780000000     0.486900000000     0.0482827  
H89      H      0.294570000000     0.303950000000     0.366130000000     0.038254   
H90      H      0.319410000000     0.408250000000     0.406000000000     0.0442825  
H91      H      0.298460000000     0.364550000000     0.302690000000     0.0452362  
H92      H      0.411060000000     0.380430000000     0.385190000000     0.0447787  
H93      H      0.339040000000     0.361090000000     0.328280000000     0.0368778  
H94      H      0.435620000000     0.485650000000     0.422310000000     0.0460983  
H95      H      0.392490000000     0.428350000000     0.462610000000     0.0385871  
H96      H      0.393510000000     0.462780000000     0.425500000000     0.0371784  
H97      H      0.374610000000     0.357000000000     0.361520000000     0.0405816  
H98      H      0.336410000000     0.326380000000     0.364970000000     0.039587   
H99      H      0.450530000000     0.411830000000     0.457250000000     0.0412944  
H100     H      0.266370000000     0.367550000000     0.384790000000     0.0370756  
H101     H      0.316630000000     0.144780000000     0.389210000000     0.0416918  
H102     H      0.396200000000     0.076220000000     0.397820000000     0.034624   
H103     H      0.389770000000     0.135480000000     0.462670000000     0.0401646  
H104     H      0.335760000000     0.199200000000     0.301500000000     0.0368938  
H105     H      0.398620000000     0.050340000000     0.440800000000     0.0379071  
H106     H      0.335350000000     0.213690000000     0.387570000000     0.0351014  
H107     H      0.339600000000     0.153840000000     0.323140000000     0.0345813  
H108     H      0.301540000000     0.240510000000     0.361150000000     0.0478702  
H109     H      0.424170000000     0.109990000000     0.489700000000     0.0393215  
H110     H      0.338370000000     0.111720000000     0.420480000000     0.0440161  
H111     H      0.430190000000     0.049930000000     0.424460000000     0.046277   
H112     H      0.391980000000     0.177710000000     0.365270000000     0.044443   
H113     H      0.424450000000     0.096970000000     0.406740000000     0.0390678  
H114     H      0.306090000000     0.179930000000     0.295890000000     0.047107   
H115     H      0.306530000000     0.193450000000     0.379480000000     0.0403861  
H116     H      0.309020000000     0.158210000000     0.341440000000     0.0397901  
H117     H      0.413700000000     0.144750000000     0.396630000000     0.0412666  
H118     H      0.420560000000     0.131640000000     0.444970000000     0.0421406  
H119     H      0.332810000000     0.238850000000     0.344120000000     0.0376616  
H120     H      0.365390000000     0.076320000000     0.474150000000     0.0378162  
H121     H      0.165340000000     0.397480000000     0.393250000000     0.0412184  
H122     H      0.084880000000     0.464840000000     0.397790000000     0.0348321  
H123     H      0.085690000000     0.401970000000     0.459470000000     0.0404922  
H124     H      0.153950000000     0.347990000000     0.301150000000     0.0385761  
H125     H      0.079530000000     0.489010000000     0.441180000000     0.0386377  
H126     H      0.146950000000     0.329100000000     0.387050000000     0.035153   
H127     H      0.148920000000     0.391720000000     0.325220000000     0.0346122  
H128     H      0.182680000000     0.303000000000     0.362670000000     0.0467854  
H129     H      0.049140000000     0.426580000000     0.484560000000     0.0382864  
H130     H      0.140790000000     0.428670000000     0.424100000000     0.044114   
H131     H      0.048940000000     0.489890000000     0.422900000000     0.0455226  
H132     H      0.092560000000     0.365670000000     0.360540000000     0.0447525  
H133     H      0.055970000000     0.443960000000     0.403440000000     0.0385278  
H134     H      0.184690000000     0.366130000000     0.300360000000     0.0460629  
H135     H      0.176510000000     0.349170000000     0.382160000000     0.0391365  
H136     H      0.177660000000     0.385630000000     0.346160000000     0.0384506  
H137     H      0.068020000000     0.396760000000     0.391450000000     0.0411905  
H138     H      0.056540000000     0.407660000000     0.439370000000     0.0413325  
H139     H      0.152550000000     0.305050000000     0.343560000000     0.0392043  
H140     H      0.109070000000     0.461150000000     0.478060000000     0.0376408  
H141     H      0.317350000000     0.394060000000     0.141860000000     0.0411928  
H142     H      0.394390000000     0.462800000000     0.134270000000     0.03523    
H143     H      0.398280000000     0.398790000000     0.073900000000     0.0402107  
H144     H      0.331090000000     0.345290000000     0.234520000000     0.0383581  
H145     H      0.399140000000     0.485750000000     0.090050000000     0.0414171  
H146     H      0.335850000000     0.326190000000     0.148750000000     0.0345054  
H147     H      0.335880000000     0.389110000000     0.210310000000     0.0346145  
H148     H      0.300810000000     0.300360000000     0.174230000000     0.0464588  
H149     H      0.434790000000     0.424880000000     0.049700000000     0.0380339  
H150     H      0.340950000000     0.424730000000     0.109670000000     0.0442233  
H151     H      0.428860000000     0.489850000000     0.109430000000     0.0480678  
H152     H      0.391100000000     0.363860000000     0.173610000000     0.0443571  
H153     H      0.424500000000     0.443620000000     0.129780000000     0.0387009  
H154     H      0.300570000000     0.363840000000     0.236390000000     0.0458509  
H155     H      0.306510000000     0.346440000000     0.154260000000     0.0387071  
H156     H      0.306570000000     0.383320000000     0.190230000000     0.0385507  
H157     H      0.414690000000     0.394690000000     0.141600000000     0.0409341  
H158     H      0.426550000000     0.406280000000     0.094760000000     0.040776   
H159     H      0.331210000000     0.302700000000     0.192760000000     0.0372656  
H160     H      0.372960000000     0.455930000000     0.052640000000     0.0379315  
H161     H      0.121180000000     0.108170000000     0.606450000000     0.0413966  
H162     H      0.163690000000     0.201100000000     0.638040000000     0.0349825  
H163     H      0.162440000000     0.138960000000     0.700470000000     0.0403987  
H164     H      0.026440000000     0.134770000000     0.587180000000     0.0397729  
H165     H      0.208100000000     0.197650000000     0.655240000000     0.0390804  
H166     H      0.069220000000     0.088460000000     0.647060000000     0.03532    
H167     H      0.071460000000     0.150390000000     0.584540000000     0.0349349  
H168     H      0.038160000000     0.060080000000     0.618650000000     0.0482526  
H169     H      0.192170000000     0.168520000000     0.729980000000     0.0378886  
H170     H      0.160730000000     0.128120000000     0.627700000000     0.0441878  
H171     H      0.194240000000     0.230070000000     0.666320000000     0.045816   
H172     H      0.072880000000     0.161020000000     0.657510000000     0.0447889  
H173     H      0.150980000000     0.209550000000     0.671860000000     0.0382709  
H174     H      0.040480000000     0.122470000000     0.555380000000     0.04574    
H175     H      0.081890000000     0.079660000000     0.613290000000     0.0396328  
H176     H      0.083240000000     0.115850000000     0.576800000000     0.0384008  
H177     H      0.112370000000     0.180920000000     0.678780000000     0.040909   
H178     H      0.150270000000     0.173180000000     0.708140000000     0.0406311  
H179     H      0.024930000000     0.092890000000     0.629690000000     0.0398939  
H180     H      0.215970000000     0.143940000000     0.666800000000     0.0370708  
H181     H      0.118430000000     0.107360000000     0.926330000000     0.0411012  
H182     H      0.159130000000     0.139980000000     0.831610000000     0.0350189  
H183     H      0.164160000000     0.198370000000     0.897320000000     0.0406129  
H184     H      0.021400000000     0.096620000000     0.905270000000     0.0393017  
H185     H      0.204620000000     0.154110000000     0.833720000000     0.0396009  
H186     H      0.070210000000     0.151340000000     0.950140000000     0.0350357  
H187     H      0.065120000000     0.090820000000     0.886420000000     0.0347934  
H188     H      0.039090000000     0.123740000000     0.979450000000     0.045632   
H189     H      0.194590000000     0.227760000000     0.868830000000     0.039233   
H190     H      0.158310000000     0.126030000000     0.904660000000     0.0441249  
H191     H      0.190130000000     0.168590000000     0.803110000000     0.0453691  
H192     H      0.071320000000     0.163760000000     0.877850000000     0.0446875  
H193     H      0.148130000000     0.175220000000     0.826010000000     0.0380284  
H194     H      0.033700000000     0.062910000000     0.914630000000     0.0465922  
H195     H      0.081390000000     0.116390000000     0.957030000000     0.0383948  
H196     H      0.078250000000     0.080780000000     0.919640000000     0.0384022  
H197     H      0.111180000000     0.182480000000     0.856250000000     0.040968   
H198     H      0.151240000000     0.209210000000     0.864450000000     0.0409689  
H199     H      0.024780000000     0.136700000000     0.948010000000     0.0397034  
H200     H      0.215040000000     0.161040000000     0.887460000000     0.0370567  
H201     H      0.163980000000     0.400250000000     0.644210000000     0.041075   
H202     H      0.084670000000     0.404660000000     0.580250000000     0.0354163  
H203     H      0.079650000000     0.464890000000     0.644240000000     0.040378   
H204     H      0.155270000000     0.305330000000     0.690280000000     0.0396703  
H205     H      0.077790000000     0.448450000000     0.557170000000     0.0419668  
H206     H      0.148820000000     0.391440000000     0.712100000000     0.0346212  
H207     H      0.148130000000     0.331070000000     0.648080000000     0.0348272  
H208     H      0.185620000000     0.366360000000     0.735530000000     0.0464037  
H209     H      0.041590000000     0.487600000000     0.618980000000     0.0371635  
H210     H      0.137920000000     0.432120000000     0.615520000000     0.0444091  
H211     H      0.048450000000     0.428070000000     0.554490000000     0.0477793  
H212     H      0.092840000000     0.364880000000     0.677330000000     0.0447236  
H213     H      0.054850000000     0.408000000000     0.600100000000     0.0383988  
H214     H      0.185410000000     0.305690000000     0.671080000000     0.0448197  
H215     H      0.177460000000     0.387060000000     0.690590000000     0.0381977  
H216     H      0.177000000000     0.352110000000     0.653330000000     0.0380379  
H217     H      0.066790000000     0.396600000000     0.648480000000     0.041031   
H218     H      0.052150000000     0.442710000000     0.637040000000     0.0404031  
H219     H      0.155430000000     0.347230000000     0.734630000000     0.0391802  
H220     H      0.102710000000     0.488440000000     0.586320000000     0.0377951  
H221     H      0.319170000000     0.152490000000     0.644990000000     0.0417051  
H222     H      0.397290000000     0.143720000000     0.575660000000     0.0351209  
H223     H      0.392410000000     0.078620000000     0.634880000000     0.0401638  
H224     H      0.337460000000     0.241370000000     0.697530000000     0.0365994  
H225     H      0.398400000000     0.100400000000     0.550250000000     0.0409723  
H226     H      0.340810000000     0.155380000000     0.713200000000     0.0347491  
H227     H      0.340930000000     0.219260000000     0.652480000000     0.0345767  
H228     H      0.307320000000     0.181040000000     0.740760000000     0.0471926  
H229     H      0.426520000000     0.051600000000     0.608570000000     0.0388205  
H230     H      0.340320000000     0.120530000000     0.612230000000     0.0443355  
H231     H      0.429940000000     0.116770000000     0.548180000000     0.0477937  
H232     H      0.395110000000     0.177550000000     0.675470000000     0.044455   
H233     H      0.426110000000     0.134500000000     0.595340000000     0.0390967  
H234     H      0.307150000000     0.245740000000     0.679100000000     0.0464507  
H235     H      0.311020000000     0.161880000000     0.694040000000     0.0404798  
H236     H      0.311100000000     0.199800000000     0.657950000000     0.0397384  
H237     H      0.416240000000     0.145350000000     0.642900000000     0.0412434  
H238     H      0.423040000000     0.096490000000     0.630070000000     0.0417102  
H239     H      0.337600000000     0.199770000000     0.737040000000     0.0367422  
H240     H      0.366860000000     0.066040000000     0.576180000000     0.0384397  
H241     H      0.355880000000     0.431610000000     0.929780000000     0.0411156  
H242     H      0.325440000000     0.395310000000     0.833690000000     0.0346735  
H243     H      0.321450000000     0.334880000000     0.897540000000     0.0404356  
H244     H      0.451760000000     0.454320000000     0.911420000000     0.0408389  
H245     H      0.281120000000     0.378440000000     0.831870000000     0.040269   
H246     H      0.406390000000     0.394270000000     0.957100000000     0.0353029  
H247     H      0.408130000000     0.454060000000     0.892620000000     0.0345369  
H248     H      0.433940000000     0.425780000000     0.986900000000     0.0484267  
H249     H      0.294570000000     0.303950000000     0.866130000000     0.0382888  
H250     H      0.319410000000     0.408250000000     0.906000000000     0.0443184  
H251     H      0.298460000000     0.364550000000     0.802690000000     0.0452325  
H252     H      0.411060000000     0.380430000000     0.885190000000     0.0447862  
H253     H      0.339040000000     0.361090000000     0.828280000000     0.0368807  
H254     H      0.435620000000     0.485650000000     0.922310000000     0.0461075  
H255     H      0.392490000000     0.428350000000     0.962620000000     0.0386982  
H256     H      0.393510000000     0.462780000000     0.925500000000     0.0371997  
H257     H      0.374610000000     0.357000000000     0.861520000000     0.0406133  
H258     H      0.336410000000     0.326380000000     0.864970000000     0.0395926  
H259     H      0.450530000000     0.411830000000     0.957250000000     0.0413384  
H260     H      0.266370000000     0.367550000000     0.884790000000     0.0370857  
H261     H      0.316630000000     0.144780000000     0.889210000000     0.0417126  
H262     H      0.396200000000     0.076220000000     0.897820000000     0.0346254  
H263     H      0.389770000000     0.135480000000     0.962670000000     0.0402292  
H264     H      0.335760000000     0.199200000000     0.801500000000     0.0368925  
H265     H      0.398620000000     0.050340000000     0.940800000000     0.0379376  
H266     H      0.335350000000     0.213690000000     0.887570000000     0.0351254  
H267     H      0.339600000000     0.153840000000     0.823140000000     0.034578   
H268     H      0.301540000000     0.240510000000     0.861150000000     0.0479118  
H269     H      0.424170000000     0.109990000000     0.989700000000     0.0394556  
H270     H      0.338370000000     0.111720000000     0.920480000000     0.0440269  
H271     H      0.430190000000     0.049930000000     0.924460000000     0.0462801  
H272     H      0.391980000000     0.177710000000     0.865270000000     0.0444513  
H273     H      0.424450000000     0.096970000000     0.906740000000     0.0390674  
H274     H      0.306090000000     0.179930000000     0.795890000000     0.0471055  
H275     H      0.306530000000     0.193450000000     0.879480000000     0.0403995  
H276     H      0.309020000000     0.158210000000     0.841440000000     0.0397924  
H277     H      0.413700000000     0.144750000000     0.896630000000     0.0412738  
H278     H      0.420560000000     0.131640000000     0.944970000000     0.0421721  
H279     H      0.332810000000     0.238850000000     0.844120000000     0.0376918  
H280     H      0.365390000000     0.076320000000     0.974150000000     0.0378304  
H281     H      0.165340000000     0.397480000000     0.893250000000     0.0412453  
H282     H      0.084880000000     0.464840000000     0.897790000000     0.0348345  
H283     H      0.085690000000     0.401970000000     0.959470000000     0.0405484  
H284     H      0.153950000000     0.347990000000     0.801150000000     0.0385735  
H285     H      0.079530000000     0.489010000000     0.941180000000     0.0386704  
H286     H      0.146950000000     0.329100000000     0.887050000000     0.0351845  
H287     H      0.148920000000     0.391720000000     0.825220000000     0.0346106  
H288     H      0.182680000000     0.303000000000     0.862670000000     0.0467904  
H289     H      0.049140000000     0.426580000000     0.984550000000     0.0383979  
H290     H      0.140790000000     0.428670000000     0.924110000000     0.0441292  
H291     H      0.048940000000     0.489890000000     0.922900000000     0.0455257  
H292     H      0.092560000000     0.365670000000     0.860540000000     0.0447585  
H293     H      0.055970000000     0.443960000000     0.903440000000     0.0385262  
H294     H      0.184690000000     0.366130000000     0.800360000000     0.04606    
H295     H      0.176510000000     0.349170000000     0.882160000000     0.0391591  
H296     H      0.177660000000     0.385630000000     0.846160000000     0.0384551  
H297     H      0.068020000000     0.396760000000     0.891450000000     0.0411963  
H298     H      0.056540000000     0.407660000000     0.939370000000     0.0413559  
H299     H      0.152550000000     0.305050000000     0.843560000000     0.0392083  
H300     H      0.109070000000     0.461150000000     0.978060000000     0.0376539  
H301     H      0.317350000000     0.394060000000     0.641860000000     0.0412135  
H302     H      0.394390000000     0.462800000000     0.634270000000     0.0352311  
H303     H      0.398280000000     0.398790000000     0.573900000000     0.0402687  
H304     H      0.331090000000     0.345290000000     0.734520000000     0.0383601  
H305     H      0.399140000000     0.485750000000     0.590050000000     0.0414374  
H306     H      0.335850000000     0.326190000000     0.648750000000     0.0345351  
H307     H      0.335880000000     0.389110000000     0.710310000000     0.0346116  
H308     H      0.300810000000     0.300360000000     0.674230000000     0.0464768  
H309     H      0.434790000000     0.424880000000     0.549700000000     0.0381393  
H310     H      0.340950000000     0.424730000000     0.609670000000     0.0442614  
H311     H      0.428860000000     0.489850000000     0.609430000000     0.0480578  
H312     H      0.391100000000     0.363860000000     0.673610000000     0.0443611  
H313     H      0.424500000000     0.443620000000     0.629780000000     0.0386983  
H314     H      0.300570000000     0.363840000000     0.736390000000     0.0458504  
H315     H      0.306510000000     0.346440000000     0.654260000000     0.0387306  
H316     H      0.306570000000     0.383320000000     0.690230000000     0.0385542  
H317     H      0.414690000000     0.394690000000     0.641600000000     0.0409423  
H318     H      0.426550000000     0.406280000000     0.594760000000     0.0407994  
H319     H      0.331210000000     0.302700000000     0.692760000000     0.0372723  
H320     H      0.372960000000     0.455930000000     0.552640000000     0.0379539  
H321     H      0.121180000000     0.608170000000     0.106450000000     0.0413896  
H322     H      0.163690000000     0.701100000000     0.138040000000     0.0349363  
H323     H      0.162440000000     0.638960000000     0.200470000000     0.0404303  
H324     H      0.026440000000     0.634770000000     0.087180000000     0.0397332  
H325     H      0.208100000000     0.697650000000     0.155240000000     0.0390602  
H326     H      0.069220000000     0.588460000000     0.147060000000     0.0353674  
H327     H      0.071460000000     0.650390000000     0.084540000000     0.0348646  
H328     H      0.038160000000     0.560080000000     0.118650000000     0.0483219  
H329     H      0.192170000000     0.668520000000     0.229980000000     0.0379048  
H330     H      0.160730000000     0.628120000000     0.127700000000     0.044184   
H331     H      0.194240000000     0.730070000000     0.166320000000     0.0458003  
H332     H      0.072880000000     0.661020000000     0.157510000000     0.0447874  
H333     H      0.150980000000     0.709560000000     0.171860000000     0.0382406  
H334     H      0.040480000000     0.622470000000     0.055380000000     0.0456382  
H335     H      0.081890000000     0.579660000000     0.113290000000     0.0396455  
H336     H      0.083240000000     0.615850000000     0.076790000000     0.0383343  
H337     H      0.112370000000     0.680920000000     0.178780000000     0.0409098  
H338     H      0.150270000000     0.673180000000     0.208140000000     0.040642   
H339     H      0.024930000000     0.592890000000     0.129690000000     0.0399278  
H340     H      0.215970000000     0.643940000000     0.166800000000     0.0370667  
H341     H      0.118430000000     0.607360000000     0.426330000000     0.0411311  
H342     H      0.159130000000     0.639980000000     0.331610000000     0.0350505  
H343     H      0.164160000000     0.698370000000     0.397330000000     0.0405504  
H344     H      0.021400000000     0.596620000000     0.405270000000     0.0393356  
H345     H      0.204620000000     0.654110000000     0.333720000000     0.0396341  
H346     H      0.070210000000     0.651340000000     0.450140000000     0.0349749  
H347     H      0.065120000000     0.590820000000     0.386420000000     0.0348506  
H348     H      0.039090000000     0.623740000000     0.479450000000     0.0455045  
H349     H      0.194590000000     0.727760000000     0.368830000000     0.0392159  
H350     H      0.158310000000     0.626030000000     0.404660000000     0.0441253  
H351     H      0.190130000000     0.668590000000     0.303110000000     0.0453998  
H352     H      0.071320000000     0.663760000000     0.377850000000     0.0446866  
H353     H      0.148130000000     0.675220000000     0.326010000000     0.0380341  
H354     H      0.033700000000     0.562910000000     0.414620000000     0.0466761  
H355     H      0.081390000000     0.616390000000     0.457030000000     0.0383535  
H356     H      0.078250000000     0.580780000000     0.419640000000     0.0384478  
H357     H      0.111180000000     0.682480000000     0.356250000000     0.0409656  
H358     H      0.151240000000     0.709210000000     0.364450000000     0.0409499  
H359     H      0.024780000000     0.636700000000     0.448010000000     0.0396434  
H360     H      0.215040000000     0.661040000000     0.387460000000     0.0370625  
H361     H      0.163980000000     0.900250000000     0.144210000000     0.0410835  
H362     H      0.084670000000     0.904660000000     0.080260000000     0.0353559  
H363     H      0.079650000000     0.964890000000     0.144240000000     0.0405382  
H364     H      0.155270000000     0.805330000000     0.190280000000     0.039659   
H365     H      0.077790000000     0.948450000000     0.057180000000     0.0419117  
H366     H      0.148820000000     0.891440000000     0.212100000000     0.0346579  
H367     H      0.148130000000     0.831070000000     0.148090000000     0.0348128  
H368     H      0.185620000000     0.866360000000     0.235530000000     0.0464259  
H369     H      0.041590000000     0.987600000000     0.118980000000     0.0371963  
H370     H      0.137920000000     0.932120000000     0.115520000000     0.0443888  
H371     H      0.048450000000     0.928070000000     0.054490000000     0.0476631  
H372     H      0.092840000000     0.864880000000     0.177330000000     0.0447258  
H373     H      0.054850000000     0.908000000000     0.100100000000     0.0383688  
H374     H      0.185410000000     0.805690000000     0.171080000000     0.0447957  
H375     H      0.177460000000     0.887060000000     0.190590000000     0.038222   
H376     H      0.177000000000     0.852110000000     0.153330000000     0.0380277  
H377     H      0.066790000000     0.896600000000     0.148480000000     0.0410209  
H378     H      0.052150000000     0.942710000000     0.137040000000     0.0404621  
H379     H      0.155430000000     0.847230000000     0.234630000000     0.0391848  
H380     H      0.102710000000     0.988440000000     0.086320000000     0.0381977  
H381     H      0.319170000000     0.652490000000     0.144990000000     0.0416933  
H382     H      0.397290000000     0.643720000000     0.075660000000     0.0350432  
H383     H      0.392410000000     0.578620000000     0.134880000000     0.0402232  
H384     H      0.337460000000     0.741370000000     0.197530000000     0.0365984  
H385     H      0.398400000000     0.600400000000     0.050250000000     0.0408569  
H386     H      0.340810000000     0.655380000000     0.213200000000     0.0347841  
H387     H      0.340930000000     0.719260000000     0.152480000000     0.0345379  
H388     H      0.307320000000     0.681040000000     0.240760000000     0.0472023  
H389     H      0.426520000000     0.551600000000     0.108570000000     0.0389246  
H390     H      0.340320000000     0.620530000000     0.112230000000     0.0443244  
H391     H      0.429940000000     0.616770000000     0.048180000000     0.0476733  
H392     H      0.395110000000     0.677550000000     0.175470000000     0.0444503  
H393     H      0.426110000000     0.634500000000     0.095340000000     0.0390673  
H394     H      0.307150000000     0.745740000000     0.179100000000     0.0464396  
H395     H      0.311020000000     0.661880000000     0.194040000000     0.040501   
H396     H      0.311100000000     0.699800000000     0.157950000000     0.0397082  
H397     H      0.416240000000     0.645350000000     0.142900000000     0.0412465  
H398     H      0.423040000000     0.596490000000     0.130070000000     0.0417411  
H399     H      0.337600000000     0.699770000000     0.237040000000     0.0367453  
H400     H      0.366860000000     0.566040000000     0.076180000000     0.0383903  
H401     H      0.355880000000     0.931610000000     0.429780000000     0.0411159  
H402     H      0.325440000000     0.895310000000     0.333690000000     0.034719   
H403     H      0.321450000000     0.834880000000     0.397540000000     0.0404015  
H404     H      0.451760000000     0.954320000000     0.411420000000     0.0408908  
H405     H      0.281120000000     0.878440000000     0.331870000000     0.0402607  
H406     H      0.406390000000     0.894270000000     0.457100000000     0.0351989  
H407     H      0.408130000000     0.954060000000     0.392630000000     0.0346239  
H408     H      0.433940000000     0.925780000000     0.486900000000     0.0482814  
H409     H      0.294570000000     0.803950000000     0.366130000000     0.0382521  
H410     H      0.319410000000     0.908250000000     0.406000000000     0.0443159  
H411     H      0.298460000000     0.864560000000     0.302690000000     0.0452022  
H412     H      0.411060000000     0.880430000000     0.385190000000     0.0447845  
H413     H      0.339040000000     0.861090000000     0.328280000000     0.0368981  
H414     H      0.435620000000     0.985640000000     0.422310000000     0.0462389  
H415     H      0.392490000000     0.928340000000     0.462610000000     0.0386207  
H416     H      0.393510000000     0.962780000000     0.425500000000     0.0372538  
H417     H      0.374610000000     0.857000000000     0.361520000000     0.0405849  
H418     H      0.336410000000     0.826380000000     0.364970000000     0.0395846  
H419     H      0.450530000000     0.911830000000     0.457250000000     0.0412858  
H420     H      0.266370000000     0.867550000000     0.384790000000     0.0370818  
H421     H      0.316630000000     0.644780000000     0.389210000000     0.0417104  
H422     H      0.396200000000     0.576220000000     0.397820000000     0.0346891  
H423     H      0.389770000000     0.635480000000     0.462670000000     0.0401626  
H424     H      0.335760000000     0.699200000000     0.301500000000     0.0368819  
H425     H      0.398620000000     0.550340000000     0.440800000000     0.038011   
H426     H      0.335350000000     0.713690000000     0.387570000000     0.0350946  
H427     H      0.339600000000     0.653840000000     0.323140000000     0.0346107  
H428     H      0.301540000000     0.740510000000     0.361150000000     0.0478776  
H429     H      0.424170000000     0.609990000000     0.489700000000     0.0393208  
H430     H      0.338370000000     0.611720000000     0.420480000000     0.0440542  
H431     H      0.430190000000     0.549930000000     0.424460000000     0.0463853  
H432     H      0.391980000000     0.677710000000     0.365270000000     0.0444457  
H433     H      0.424450000000     0.596970000000     0.406740000000     0.0390889  
H434     H      0.306090000000     0.679930000000     0.295890000000     0.0471082  
H435     H      0.306530000000     0.693450000000     0.379480000000     0.0403866  
H436     H      0.309020000000     0.658210000000     0.341440000000     0.039816   
H437     H      0.413700000000     0.644750000000     0.396630000000     0.0412728  
H438     H      0.420560000000     0.631640000000     0.444970000000     0.042137   
H439     H      0.332810000000     0.738850000000     0.344120000000     0.0376662  
H440     H      0.365390000000     0.576320000000     0.474150000000     0.0378632  
H441     H      0.165340000000     0.897480000000     0.393250000000     0.0412406  
H442     H      0.084880000000     0.964840000000     0.397790000000     0.0349037  
H443     H      0.085690000000     0.901970000000     0.459470000000     0.0404898  
H444     H      0.153950000000     0.847990000000     0.301150000000     0.0386004  
H445     H      0.079530000000     0.989010000000     0.441180000000     0.038747   
H446     H      0.146950000000     0.829100000000     0.387050000000     0.0351478  
H447     H      0.148920000000     0.891720000000     0.325220000000     0.0346396  
H448     H      0.182680000000     0.803010000000     0.362670000000     0.0467998  
H449     H      0.049140000000     0.926580000000     0.484560000000     0.0382847  
H450     H      0.140790000000     0.928670000000     0.424100000000     0.0441562  
H451     H      0.048940000000     0.989890000000     0.422900000000     0.0456331  
H452     H      0.092560000000     0.865670000000     0.360540000000     0.0447575  
H453     H      0.055970000000     0.943960000000     0.403440000000     0.0385547  
H454     H      0.184690000000     0.866140000000     0.300360000000     0.0460949  
H455     H      0.176510000000     0.849170000000     0.382160000000     0.0391381  
H456     H      0.177660000000     0.885630000000     0.346160000000     0.0384716  
H457     H      0.068020000000     0.896760000000     0.391450000000     0.0411996  
H458     H      0.056540000000     0.907660000000     0.439370000000     0.0413308  
H459     H      0.152550000000     0.805050000000     0.343560000000     0.039214   
H460     H      0.109070000000     0.961150000000     0.478060000000     0.0376937  
H461     H      0.317350000000     0.894060000000     0.141860000000     0.0412151  
H462     H      0.394390000000     0.962810000000     0.134270000000     0.0352923  
H463     H      0.398280000000     0.898790000000     0.073900000000     0.0402078  
H464     H      0.331090000000     0.845300000000     0.234520000000     0.0383553  
H465     H      0.399140000000     0.985750000000     0.090050000000     0.041553   
H466     H      0.335850000000     0.826190000000     0.148750000000     0.0345034  
H467     H      0.335880000000     0.889110000000     0.210310000000     0.0346493  
H468     H      0.300810000000     0.800360000000     0.174230000000     0.0464573  
H469     H      0.434790000000     0.924880000000     0.049700000000     0.0380327  
H470     H      0.340950000000     0.924730000000     0.109670000000     0.0442678  
H471     H      0.428860000000     0.989850000000     0.109430000000     0.0482     
H472     H      0.391100000000     0.863860000000     0.173610000000     0.0443623  
H473     H      0.424500000000     0.943620000000     0.129780000000     0.0387245  
H474     H      0.300570000000     0.863850000000     0.236390000000     0.0458482  
H475     H      0.306510000000     0.846440000000     0.154260000000     0.0387126  
H476     H      0.306570000000     0.883320000000     0.190230000000     0.0385794  
H477     H      0.414690000000     0.894690000000     0.141600000000     0.0409435  
H478     H      0.426550000000     0.906280000000     0.094760000000     0.0407738  
H479     H      0.331210000000     0.802700000000     0.192760000000     0.0372641  
H480     H      0.372960000000     0.955930000000     0.052640000000     0.0379884  
H481     H      0.121180000000     0.608170000000     0.606450000000     0.041428   
H482     H      0.163690000000     0.701100000000     0.638040000000     0.0349744  
H483     H      0.162440000000     0.638960000000     0.700470000000     0.0404294  
H484     H      0.026440000000     0.634770000000     0.587180000000     0.0397684  
H485     H      0.208100000000     0.697650000000     0.655240000000     0.0390858  
H486     H      0.069220000000     0.588460000000     0.647060000000     0.0353659  
H487     H      0.071460000000     0.650390000000     0.584540000000     0.0349348  
H488     H      0.038160000000     0.560080000000     0.618650000000     0.0483218  
H489     H      0.192170000000     0.668520000000     0.729980000000     0.0379028  
H490     H      0.160730000000     0.628120000000     0.627700000000     0.0442177  
H491     H      0.194240000000     0.730070000000     0.666320000000     0.045818   
H492     H      0.072880000000     0.661020000000     0.657510000000     0.0447946  
H493     H      0.150980000000     0.709560000000     0.671860000000     0.0382496  
H494     H      0.040480000000     0.622470000000     0.555380000000     0.0457417  
H495     H      0.081890000000     0.579660000000     0.613290000000     0.0396645  
H496     H      0.083240000000     0.615850000000     0.576800000000     0.0384192  
H497     H      0.112370000000     0.680920000000     0.678780000000     0.0409126  
H498     H      0.150270000000     0.673180000000     0.708140000000     0.0406395  
H499     H      0.024930000000     0.592890000000     0.629690000000     0.0399247  
H500     H      0.215970000000     0.643940000000     0.666800000000     0.037086   
H501     H      0.118430000000     0.607360000000     0.926330000000     0.0411439  
H502     H      0.159130000000     0.639980000000     0.831610000000     0.0350497  
H503     H      0.164160000000     0.698370000000     0.897320000000     0.0406155  
H504     H      0.021400000000     0.596620000000     0.905270000000     0.0393407  
H505     H      0.204620000000     0.654110000000     0.833720000000     0.039636   
H506     H      0.070210000000     0.651340000000     0.950140000000     0.03504    
H507     H      0.065120000000     0.590820000000     0.886420000000     0.0348483  
H508     H      0.039090000000     0.623740000000     0.979450000000     0.0456203  
H509     H      0.194590000000     0.727760000000     0.868830000000     0.0392278  
H510     H      0.158310000000     0.626030000000     0.904660000000     0.0441604  
H511     H      0.190130000000     0.668590000000     0.803110000000     0.0453977  
H512     H      0.071320000000     0.663760000000     0.877850000000     0.0446928  
H513     H      0.148130000000     0.675220000000     0.826010000000     0.0380323  
H514     H      0.033700000000     0.562910000000     0.914630000000     0.0466951  
H515     H      0.081390000000     0.616390000000     0.957030000000     0.038423   
H516     H      0.078250000000     0.580780000000     0.919640000000     0.0384677  
H517     H      0.111180000000     0.682480000000     0.856250000000     0.04097    
H518     H      0.151240000000     0.709210000000     0.864450000000     0.0409712  
H519     H      0.024780000000     0.636700000000     0.948010000000     0.0396875  
H520     H      0.215040000000     0.661040000000     0.887460000000     0.0370783  
H521     H      0.163980000000     0.900250000000     0.644210000000     0.0411008  
H522     H      0.084670000000     0.904660000000     0.580250000000     0.0354174  
H523     H      0.079650000000     0.964890000000     0.644240000000     0.0405346  
H524     H      0.155270000000     0.805330000000     0.690280000000     0.0396719  
H525     H      0.077790000000     0.948450000000     0.557170000000     0.0420246  
H526     H      0.148820000000     0.891440000000     0.712100000000     0.0346548  
H527     H      0.148130000000     0.831070000000     0.648080000000     0.0348249  
H528     H      0.185620000000     0.866360000000     0.735530000000     0.0464256  
H529     H      0.041590000000     0.987600000000     0.618980000000     0.0371941  
H530     H      0.137920000000     0.932120000000     0.615520000000     0.0444613  
H531     H      0.048450000000     0.928070000000     0.554490000000     0.0477743  
H532     H      0.092840000000     0.864880000000     0.677330000000     0.0447281  
H533     H      0.054850000000     0.908000000000     0.600100000000     0.0383911  
H534     H      0.185410000000     0.805690000000     0.671080000000     0.0448194  
H535     H      0.177460000000     0.887060000000     0.690590000000     0.0382256  
H536     H      0.177000000000     0.852110000000     0.653330000000     0.0380439  
H537     H      0.066790000000     0.896600000000     0.648480000000     0.0410397  
H538     H      0.052150000000     0.942710000000     0.637040000000     0.0404595  
H539     H      0.155430000000     0.847230000000     0.734630000000     0.0391877  
H540     H      0.102710000000     0.988440000000     0.586320000000     0.0382535  
H541     H      0.319170000000     0.652490000000     0.644990000000     0.041713   
H542     H      0.397290000000     0.643720000000     0.575660000000     0.0351156  
H543     H      0.392410000000     0.578620000000     0.634880000000     0.0402222  
H544     H      0.337460000000     0.741370000000     0.697530000000     0.0366013  
H545     H      0.398400000000     0.600400000000     0.550250000000     0.0409982  
H546     H      0.340810000000     0.655380000000     0.713200000000     0.0347813  
H547     H      0.340930000000     0.719260000000     0.652480000000     0.0345669  
H548     H      0.307320000000     0.681040000000     0.740760000000     0.0472004  
H549     H      0.426520000000     0.551600000000     0.608570000000     0.0389235  
H550     H      0.340320000000     0.620530000000     0.612230000000     0.044367   
H551     H      0.429940000000     0.616770000000     0.548180000000     0.0478014  
H552     H      0.395110000000     0.677550000000     0.675470000000     0.0444538  
H553     H      0.426110000000     0.634500000000     0.595340000000     0.0390895  
H554     H      0.307150000000     0.745740000000     0.679100000000     0.0464512  
H555     H      0.311020000000     0.661880000000     0.694040000000     0.0405044  
H556     H      0.311100000000     0.699800000000     0.657950000000     0.0397304  
H557     H      0.416240000000     0.645350000000     0.642900000000     0.0412538  
H558     H      0.423040000000     0.596490000000     0.630070000000     0.0417379  
H559     H      0.337600000000     0.699770000000     0.737040000000     0.0367428  
H560     H      0.366860000000     0.566040000000     0.576180000000     0.0384477  
H561     H      0.355880000000     0.931610000000     0.929780000000     0.041162   
H562     H      0.325440000000     0.895310000000     0.833690000000     0.0347216  
H563     H      0.321450000000     0.834880000000     0.897540000000     0.0404343  
H564     H      0.451760000000     0.954320000000     0.911420000000     0.0408909  
H565     H      0.281120000000     0.878440000000     0.831870000000     0.0402537  
H566     H      0.406390000000     0.894270000000     0.957100000000     0.0353042  
H567     H      0.408130000000     0.954060000000     0.892620000000     0.0345997  
H568     H      0.433940000000     0.925780000000     0.986900000000     0.0484253  
H569     H      0.294570000000     0.803950000000     0.866130000000     0.038287   
H570     H      0.319410000000     0.908250000000     0.906000000000     0.0443517  
H571     H      0.298460000000     0.864560000000     0.802690000000     0.0451986  
H572     H      0.411060000000     0.880430000000     0.885190000000     0.0447921  
H573     H      0.339040000000     0.861090000000     0.828280000000     0.0369009  
H574     H      0.435620000000     0.985640000000     0.922310000000     0.046248   
H575     H      0.392490000000     0.928340000000     0.962620000000     0.0387318  
H576     H      0.393510000000     0.962780000000     0.925500000000     0.037275   
H577     H      0.374610000000     0.857000000000     0.861520000000     0.0406167  
H578     H      0.336410000000     0.826380000000     0.864970000000     0.0395901  
H579     H      0.450530000000     0.911830000000     0.957250000000     0.0413298  
H580     H      0.266370000000     0.867550000000     0.884790000000     0.0370919  
H581     H      0.316630000000     0.644780000000     0.889210000000     0.0417313  
H582     H      0.396200000000     0.576220000000     0.897820000000     0.0346906  
H583     H      0.389770000000     0.635480000000     0.962670000000     0.0402272  
H584     H      0.335760000000     0.699200000000     0.801500000000     0.0368806  
H585     H      0.398620000000     0.550340000000     0.940800000000     0.0380416  
H586     H      0.335350000000     0.713690000000     0.887570000000     0.0351185  
H587     H      0.339600000000     0.653840000000     0.823140000000     0.0346074  
H588     H      0.301540000000     0.740510000000     0.861150000000     0.0479192  
H589     H      0.424170000000     0.609990000000     0.989700000000     0.0394551  
H590     H      0.338370000000     0.611720000000     0.920480000000     0.0440651  
H591     H      0.430190000000     0.549930000000     0.924460000000     0.0463884  
H592     H      0.391980000000     0.677710000000     0.865270000000     0.044454   
H593     H      0.424450000000     0.596970000000     0.906740000000     0.0390885  
H594     H      0.306090000000     0.679930000000     0.795890000000     0.0471068  
H595     H      0.306530000000     0.693450000000     0.879480000000     0.0404001  
H596     H      0.309020000000     0.658210000000     0.841440000000     0.0398183  
H597     H      0.413700000000     0.644750000000     0.896630000000     0.0412801  
H598     H      0.420560000000     0.631640000000     0.944970000000     0.0421686  
H599     H      0.332810000000     0.738850000000     0.844120000000     0.0376964  
H600     H      0.365390000000     0.576320000000     0.974150000000     0.0378775  
H601     H      0.165340000000     0.897480000000     0.893250000000     0.0412675  
H602     H      0.084880000000     0.964840000000     0.897790000000     0.0349061  
H603     H      0.085690000000     0.901970000000     0.959470000000     0.040546   
H604     H      0.153950000000     0.847990000000     0.801150000000     0.0385978  
H605     H      0.079530000000     0.989010000000     0.941180000000     0.0387796  
H606     H      0.146950000000     0.829100000000     0.887050000000     0.0351792  
H607     H      0.148920000000     0.891720000000     0.825220000000     0.034638   
H608     H      0.182680000000     0.803010000000     0.862670000000     0.0468049  
H609     H      0.049140000000     0.926580000000     0.984550000000     0.0383962  
H610     H      0.140790000000     0.928670000000     0.924110000000     0.0441713  
H611     H      0.048940000000     0.989890000000     0.922900000000     0.0456362  
H612     H      0.092560000000     0.865670000000     0.860540000000     0.0447636  
H613     H      0.055970000000     0.943960000000     0.903440000000     0.0385532  
H614     H      0.184690000000     0.866140000000     0.800360000000     0.046092   
H615     H      0.176510000000     0.849170000000     0.882160000000     0.0391607  
H616     H      0.177660000000     0.885630000000     0.846160000000     0.0384762  
H617     H      0.068020000000     0.896760000000     0.891450000000     0.0412054  
H618     H      0.056540000000     0.907660000000     0.939370000000     0.0413541  
H619     H      0.152550000000     0.805050000000     0.843560000000     0.039218   
H620     H      0.109070000000     0.961150000000     0.978060000000     0.0377067  
H621     H      0.317350000000     0.894060000000     0.641860000000     0.0412358  
H622     H      0.394390000000     0.962810000000     0.634270000000     0.0352935  
H623     H      0.398280000000     0.898790000000     0.573900000000     0.0402658  
H624     H      0.331090000000     0.845300000000     0.734520000000     0.0383573  
H625     H      0.399140000000     0.985750000000     0.590050000000     0.0415735  
H626     H      0.335850000000     0.826190000000     0.648750000000     0.0345331  
H627     H      0.335880000000     0.889110000000     0.710310000000     0.0346463  
H628     H      0.300810000000     0.800360000000     0.674230000000     0.0464753  
H629     H      0.434790000000     0.924880000000     0.549700000000     0.0381382  
H630     H      0.340950000000     0.924730000000     0.609670000000     0.044306   
H631     H      0.428860000000     0.989850000000     0.609430000000     0.0481902  
H632     H      0.391100000000     0.863860000000     0.673610000000     0.0443664  
H633     H      0.424500000000     0.943620000000     0.629780000000     0.0387219  
H634     H      0.300570000000     0.863850000000     0.736390000000     0.0458477  
H635     H      0.306510000000     0.846440000000     0.654260000000     0.0387361  
H636     H      0.306570000000     0.883320000000     0.690230000000     0.0385829  
H637     H      0.414690000000     0.894690000000     0.641600000000     0.0409518  
H638     H      0.426550000000     0.906280000000     0.594760000000     0.0407972  
H639     H      0.331210000000     0.802700000000     0.692760000000     0.0372708  
H640     H      0.372960000000     0.955930000000     0.552640000000     0.0380109  
H641     H      0.621180000000     0.108170000000     0.106450000000     0.0413602  
H642     H      0.663690000000     0.201100000000     0.138040000000     0.0349318  
H643     H      0.662440000000     0.138960000000     0.200470000000     0.0403726  
H644     H      0.526440000000     0.134770000000     0.087180000000     0.0395001  
H645     H      0.708100000000     0.197650000000     0.155240000000     0.039063   
H646     H      0.569220000000     0.088460000000     0.147060000000     0.0352505  
H647     H      0.571460000000     0.150390000000     0.084540000000     0.0347979  
H648     H      0.538160000000     0.060080000000     0.118650000000     0.0481374  
H649     H      0.692170000000     0.168520000000     0.229980000000     0.0378851  
H650     H      0.660730000000     0.128120000000     0.127700000000     0.0441645  
H651     H      0.694240000000     0.230070000000     0.166320000000     0.0457963  
H652     H      0.572880000000     0.161020000000     0.157510000000     0.044653   
H653     H      0.650980000000     0.209550000000     0.171860000000     0.038233   
H654     H      0.540480000000     0.122470000000     0.055380000000     0.0455281  
H655     H      0.581890000000     0.079660000000     0.113290000000     0.0396163  
H656     H      0.583240000000     0.115850000000     0.076790000000     0.0383178  
H657     H      0.612370000000     0.180920000000     0.178780000000     0.0408525  
H658     H      0.650270000000     0.173180000000     0.208140000000     0.0405835  
H659     H      0.524930000000     0.092890000000     0.129690000000     0.0396531  
H660     H      0.715970000000     0.143940000000     0.166800000000     0.0370588  
H661     H      0.618430000000     0.107360000000     0.426330000000     0.0410893  
H662     H      0.659130000000     0.139980000000     0.331610000000     0.0350003  
H663     H      0.664160000000     0.198370000000     0.397330000000     0.0405363  
H664     H      0.521400000000     0.096620000000     0.405270000000     0.0390383  
H665     H      0.704610000000     0.154110000000     0.333720000000     0.0396205  
H666     H      0.570210000000     0.151340000000     0.450140000000     0.0349042  
H667     H      0.565110000000     0.090820000000     0.386420000000     0.0347172  
H668     H      0.539090000000     0.123740000000     0.479450000000     0.0454053  
H669     H      0.694590000000     0.227760000000     0.368830000000     0.0392191  
H670     H      0.658310000000     0.126030000000     0.404660000000     0.0440996  
H671     H      0.690130000000     0.168590000000     0.303110000000     0.0453677  
H672     H      0.571320000000     0.163760000000     0.377850000000     0.0445514  
H673     H      0.648130000000     0.175220000000     0.326010000000     0.0379958  
H674     H      0.533700000000     0.062910000000     0.414620000000     0.0464271  
H675     H      0.581390000000     0.116390000000     0.457030000000     0.0383267  
H676     H      0.578250000000     0.080780000000     0.419640000000     0.0383822  
H677     H      0.611180000000     0.182480000000     0.356250000000     0.0409096  
H678     H      0.651240000000     0.209210000000     0.364450000000     0.0409203  
H679     H      0.524780000000     0.136700000000     0.448010000000     0.0394215  
H680     H      0.715040000000     0.161040000000     0.387460000000     0.0370485  
H681     H      0.663980000000     0.400250000000     0.144210000000     0.0410636  
H682     H      0.584670000000     0.404660000000     0.080260000000     0.0353135  
H683     H      0.579650000000     0.464890000000     0.144240000000     0.0403259  
H684     H      0.655270000000     0.305330000000     0.190280000000     0.0396247  
H685     H      0.577790000000     0.448450000000     0.057180000000     0.041852   
H686     H      0.648820000000     0.391440000000     0.212100000000     0.0346014  
H687     H      0.648130000000     0.331070000000     0.148090000000     0.0347902  
H688     H      0.685620000000     0.366360000000     0.235530000000     0.046397   
H689     H      0.541590000000     0.487600000000     0.118980000000     0.0370223  
H690     H      0.637920000000     0.432120000000     0.115520000000     0.0443448  
H691     H      0.548450000000     0.428070000000     0.054490000000     0.0475435  
H692     H      0.592830000000     0.364880000000     0.177330000000     0.044603   
H693     H      0.554860000000     0.408000000000     0.100100000000     0.0382521  
H694     H      0.685410000000     0.305690000000     0.171080000000     0.044787   
H695     H      0.677460000000     0.387060000000     0.190590000000     0.0381989  
H696     H      0.677000000000     0.352110000000     0.153330000000     0.0380262  
H697     H      0.566790000000     0.396600000000     0.148480000000     0.04089    
H698     H      0.552150000000     0.442710000000     0.137040000000     0.0402592  
H699     H      0.655430000000     0.347230000000     0.234630000000     0.0391475  
H700     H      0.602710000000     0.488440000000     0.086320000000     0.0377528  
H701     H      0.819170000000     0.152490000000     0.144990000000     0.0416926  
H702     H      0.897290000000     0.143720000000     0.075660000000     0.0349884  
H703     H      0.892410000000     0.078620000000     0.134880000000     0.0401168  
H704     H      0.837460000000     0.241370000000     0.197530000000     0.0365621  
H705     H      0.898400000000     0.100400000000     0.050250000000     0.0408417  
H706     H      0.840810000000     0.155380000000     0.213200000000     0.0347174  
H707     H      0.840930000000     0.219260000000     0.152480000000     0.0345073  
H708     H      0.807320000000     0.181040000000     0.240760000000     0.047198   
H709     H      0.926520000000     0.051600000000     0.108570000000     0.0387264  
H710     H      0.840320000000     0.120530000000     0.112230000000     0.0442992  
H711     H      0.929940000000     0.116770000000     0.048180000000     0.0475519  
H712     H      0.895110000000     0.177550000000     0.175470000000     0.0443444  
H713     H      0.926110000000     0.134500000000     0.095340000000     0.0389202  
H714     H      0.807150000000     0.245740000000     0.179100000000     0.0464396  
H715     H      0.811020000000     0.161880000000     0.194040000000     0.0404771  
H716     H      0.811090000000     0.199800000000     0.157950000000     0.0396989  
H717     H      0.916240000000     0.145350000000     0.142900000000     0.0411014  
H718     H      0.923040000000     0.096490000000     0.130070000000     0.0415705  
H719     H      0.837590000000     0.199770000000     0.237040000000     0.0367251  
H720     H      0.866860000000     0.066040000000     0.076180000000     0.0383912  
H721     H      0.855880000000     0.431610000000     0.429780000000     0.0410745  
H722     H      0.825440000000     0.395310000000     0.333690000000     0.0346527  
H723     H      0.821450000000     0.334880000000     0.397540000000     0.0403882  
H724     H      0.951760000000     0.454320000000     0.411420000000     0.0406152  
H725     H      0.781120000000     0.378440000000     0.331870000000     0.0402833  
H726     H      0.906390000000     0.394270000000     0.457100000000     0.0351353  
H727     H      0.908140000000     0.454060000000     0.392630000000     0.034494   
H728     H      0.933940000000     0.425780000000     0.486900000000     0.0482125  
H729     H      0.794570000000     0.303950000000     0.366130000000     0.038251   
H730     H      0.819410000000     0.408250000000     0.406000000000     0.0442928  
H731     H      0.798460000000     0.364550000000     0.302690000000     0.0452315  
H732     H      0.911060000000     0.380430000000     0.385190000000     0.0446459  
H733     H      0.839040000000     0.361090000000     0.328280000000     0.0368431  
H734     H      0.935630000000     0.485650000000     0.422310000000     0.0460191  
H735     H      0.892490000000     0.428350000000     0.462610000000     0.0385968  
H736     H      0.893510000000     0.462780000000     0.425500000000     0.037189   
H737     H      0.874610000000     0.357000000000     0.361520000000     0.0405217  
H738     H      0.836410000000     0.326380000000     0.364970000000     0.0395561  
H739     H      0.950530000000     0.411830000000     0.457250000000     0.041084   
H740     H      0.766370000000     0.367550000000     0.384790000000     0.0370829  
H741     H      0.816630000000     0.144780000000     0.389210000000     0.0417011  
H742     H      0.896200000000     0.076220000000     0.397820000000     0.0345666  
H743     H      0.889770000000     0.135480000000     0.462670000000     0.0401206  
H744     H      0.835760000000     0.199200000000     0.301500000000     0.036856   
H745     H      0.898620000000     0.050340000000     0.440800000000     0.0379228  
H746     H      0.835350000000     0.213690000000     0.387570000000     0.0350748  
H747     H      0.839600000000     0.153840000000     0.323140000000     0.0345493  
H748     H      0.801540000000     0.240510000000     0.361150000000     0.0478672  
H749     H      0.924170000000     0.109990000000     0.489700000000     0.0392377  
H750     H      0.838370000000     0.111720000000     0.420480000000     0.04402    
H751     H      0.930190000000     0.049930000000     0.424460000000     0.0461717  
H752     H      0.891980000000     0.177710000000     0.365270000000     0.0443447  
H753     H      0.924450000000     0.096970000000     0.406740000000     0.0389153  
H754     H      0.806090000000     0.179930000000     0.295890000000     0.0471027  
H755     H      0.806530000000     0.193450000000     0.379480000000     0.0403915  
H756     H      0.809020000000     0.158210000000     0.341440000000     0.0397949  
H757     H      0.913700000000     0.144750000000     0.396630000000     0.0410944  
H758     H      0.920560000000     0.131640000000     0.444970000000     0.042002   
H759     H      0.832810000000     0.238850000000     0.344120000000     0.0376253  
H760     H      0.865390000000     0.076320000000     0.474150000000     0.0378248  
H761     H      0.665340000000     0.397480000000     0.393250000000     0.0412258  
H762     H      0.584880000000     0.464840000000     0.397790000000     0.0347842  
H763     H      0.585690000000     0.401970000000     0.459470000000     0.040441   
H764     H      0.653950000000     0.347990000000     0.301150000000     0.0385434  
H765     H      0.579530000000     0.489010000000     0.441180000000     0.0386245  
H766     H      0.646950000000     0.329100000000     0.387050000000     0.0351252  
H767     H      0.648920000000     0.391720000000     0.325220000000     0.0345877  
H768     H      0.682680000000     0.303000000000     0.362670000000     0.0467809  
H769     H      0.549140000000     0.426580000000     0.484560000000     0.0381625  
H770     H      0.640790000000     0.428670000000     0.424100000000     0.0441205  
H771     H      0.548940000000     0.489890000000     0.422900000000     0.0453935  
H772     H      0.592560000000     0.365670000000     0.360540000000     0.0446541  
H773     H      0.555970000000     0.443960000000     0.403440000000     0.038382   
H774     H      0.684690000000     0.366130000000     0.300360000000     0.0460616  
H775     H      0.676510000000     0.349170000000     0.382160000000     0.0391413  
H776     H      0.677660000000     0.385630000000     0.346160000000     0.0384563  
H777     H      0.568020000000     0.396760000000     0.391450000000     0.0410608  
H778     H      0.556540000000     0.407660000000     0.439370000000     0.041186   
H779     H      0.652550000000     0.305050000000     0.343560000000     0.0391674  
H780     H      0.609070000000     0.461150000000     0.478060000000     0.0376533  
H781     H      0.817350000000     0.394060000000     0.141860000000     0.0412021  
H782     H      0.894390000000     0.462800000000     0.134270000000     0.0351819  
H783     H      0.898280000000     0.398790000000     0.073900000000     0.0401586  
H784     H      0.831090000000     0.345290000000     0.234520000000     0.0383228  
H785     H      0.899140000000     0.485750000000     0.090050000000     0.0414325  
H786     H      0.835850000000     0.326190000000     0.148750000000     0.0344793  
H787     H      0.835880000000     0.389110000000     0.210310000000     0.0345864  
H788     H      0.800810000000     0.300360000000     0.174230000000     0.0464576  
H789     H      0.934790000000     0.424880000000     0.049700000000     0.0379244  
H790     H      0.840950000000     0.424730000000     0.109670000000     0.0442288  
H791     H      0.928860000000     0.489850000000     0.109430000000     0.0479707  
H792     H      0.891090000000     0.363860000000     0.173610000000     0.0442848  
H793     H      0.924500000000     0.443620000000     0.129780000000     0.038565   
H794     H      0.800570000000     0.363840000000     0.236390000000     0.0458476  
H795     H      0.806510000000     0.346440000000     0.154260000000     0.0387125  
H796     H      0.806570000000     0.383320000000     0.190230000000     0.0385558  
H797     H      0.914690000000     0.394690000000     0.141600000000     0.0408064  
H798     H      0.926550000000     0.406280000000     0.094760000000     0.0406403  
H799     H      0.831210000000     0.302700000000     0.192760000000     0.0372341  
H800     H      0.872960000000     0.455930000000     0.052640000000     0.0379434  
H801     H      0.621180000000     0.108170000000     0.606450000000     0.0413985  
H802     H      0.663690000000     0.201100000000     0.638040000000     0.0349699  
H803     H      0.662440000000     0.138960000000     0.700470000000     0.0403717  
H804     H      0.526440000000     0.134770000000     0.587180000000     0.0395353  
H805     H      0.708100000000     0.197650000000     0.655240000000     0.0390886  
H806     H      0.569220000000     0.088460000000     0.647060000000     0.035249   
H807     H      0.571460000000     0.150390000000     0.584540000000     0.0348681  
H808     H      0.538160000000     0.060080000000     0.618650000000     0.0481373  
H809     H      0.692170000000     0.168520000000     0.729980000000     0.0378831  
H810     H      0.660730000000     0.128120000000     0.627700000000     0.0441981  
H811     H      0.694240000000     0.230070000000     0.666320000000     0.0458141  
H812     H      0.572880000000     0.161020000000     0.657510000000     0.0446603  
H813     H      0.650980000000     0.209550000000     0.671860000000     0.038242   
H814     H      0.540480000000     0.122470000000     0.555380000000     0.0456315  
H815     H      0.581890000000     0.079660000000     0.613290000000     0.0396352  
H816     H      0.583240000000     0.115850000000     0.576800000000     0.0384026  
H817     H      0.612370000000     0.180920000000     0.678780000000     0.0408553  
H818     H      0.650270000000     0.173180000000     0.708140000000     0.040581   
H819     H      0.524930000000     0.092890000000     0.629690000000     0.03965    
H820     H      0.715970000000     0.143940000000     0.666800000000     0.0370781  
H821     H      0.618430000000     0.107360000000     0.926330000000     0.0411021  
H822     H      0.659130000000     0.139980000000     0.831610000000     0.0349995  
H823     H      0.664160000000     0.198370000000     0.897320000000     0.0406015  
H824     H      0.521400000000     0.096620000000     0.905270000000     0.0390437  
H825     H      0.704610000000     0.154110000000     0.833720000000     0.0396224  
H826     H      0.570210000000     0.151340000000     0.950140000000     0.0349697  
H827     H      0.565110000000     0.090820000000     0.886420000000     0.0347149  
H828     H      0.539090000000     0.123740000000     0.979450000000     0.0455217  
H829     H      0.694590000000     0.227760000000     0.868830000000     0.0392311  
H830     H      0.658310000000     0.126030000000     0.904660000000     0.0441347  
H831     H      0.690130000000     0.168590000000     0.803110000000     0.0453657  
H832     H      0.571320000000     0.163760000000     0.877850000000     0.0445578  
H833     H      0.648130000000     0.175220000000     0.826010000000     0.0379941  
H834     H      0.533700000000     0.062910000000     0.914630000000     0.0464464  
H835     H      0.581390000000     0.116390000000     0.957030000000     0.0383963  
H836     H      0.578250000000     0.080780000000     0.919640000000     0.0384021  
H837     H      0.611180000000     0.182480000000     0.856250000000     0.0409141  
H838     H      0.651240000000     0.209210000000     0.864450000000     0.0409416  
H839     H      0.524780000000     0.136700000000     0.948010000000     0.0394661  
H840     H      0.715040000000     0.161040000000     0.887460000000     0.0370643  
H841     H      0.663980000000     0.400250000000     0.644210000000     0.0410808  
H842     H      0.584670000000     0.404660000000     0.580250000000     0.035375   
H843     H      0.579650000000     0.464890000000     0.644240000000     0.0403221  
H844     H      0.655270000000     0.305330000000     0.690280000000     0.0396377  
H845     H      0.577790000000     0.448450000000     0.557170000000     0.0419651  
H846     H      0.648820000000     0.391440000000     0.712100000000     0.0345983  
H847     H      0.648130000000     0.331070000000     0.648080000000     0.0348023  
H848     H      0.685620000000     0.366360000000     0.735530000000     0.0463967  
H849     H      0.541590000000     0.487600000000     0.618980000000     0.03702    
H850     H      0.637920000000     0.432120000000     0.615520000000     0.0444172  
H851     H      0.548450000000     0.428070000000     0.554490000000     0.0476548  
H852     H      0.592830000000     0.364880000000     0.677330000000     0.0446054  
H853     H      0.554860000000     0.408000000000     0.600100000000     0.0382744  
H854     H      0.685410000000     0.305690000000     0.671080000000     0.0448107  
H855     H      0.677460000000     0.387060000000     0.690590000000     0.0382024  
H856     H      0.677000000000     0.352110000000     0.653330000000     0.0380424  
H857     H      0.566790000000     0.396600000000     0.648480000000     0.0409087  
H858     H      0.552150000000     0.442710000000     0.637040000000     0.0402566  
H859     H      0.655430000000     0.347230000000     0.734630000000     0.0391504  
H860     H      0.602710000000     0.488440000000     0.586320000000     0.0378077  
H861     H      0.819170000000     0.152490000000     0.644990000000     0.0417121  
H862     H      0.897290000000     0.143720000000     0.575660000000     0.0350606  
H863     H      0.892410000000     0.078620000000     0.634880000000     0.0401158  
H864     H      0.837460000000     0.241370000000     0.697530000000     0.036565   
H865     H      0.898400000000     0.100400000000     0.550250000000     0.0409827  
H866     H      0.840810000000     0.155380000000     0.713200000000     0.0347146  
H867     H      0.840930000000     0.219260000000     0.652480000000     0.0345362  
H868     H      0.807320000000     0.181040000000     0.740760000000     0.0471961  
H869     H      0.926520000000     0.051600000000     0.608570000000     0.0387251  
H870     H      0.840320000000     0.120530000000     0.612230000000     0.0443416  
H871     H      0.929940000000     0.116770000000     0.548180000000     0.0476797  
H872     H      0.895110000000     0.177550000000     0.675470000000     0.0443479  
H873     H      0.926110000000     0.134500000000     0.595340000000     0.0389422  
H874     H      0.807150000000     0.245740000000     0.679100000000     0.0464512  
H875     H      0.811020000000     0.161880000000     0.694040000000     0.0404805  
H876     H      0.811090000000     0.199800000000     0.657950000000     0.0397211  
H877     H      0.916240000000     0.145350000000     0.642900000000     0.0411086  
H878     H      0.923040000000     0.096490000000     0.630070000000     0.0415672  
H879     H      0.837590000000     0.199770000000     0.737040000000     0.0367226  
H880     H      0.866860000000     0.066040000000     0.576180000000     0.0384485  
H881     H      0.855880000000     0.431610000000     0.929780000000     0.0411207  
H882     H      0.825440000000     0.395310000000     0.833690000000     0.0346553  
H883     H      0.821450000000     0.334880000000     0.897540000000     0.0404211  
H884     H      0.951760000000     0.454320000000     0.911420000000     0.0406156  
H885     H      0.781120000000     0.378440000000     0.831870000000     0.0402763  
H886     H      0.906390000000     0.394270000000     0.957100000000     0.0352408  
H887     H      0.908140000000     0.454060000000     0.892620000000     0.0344698  
H888     H      0.933940000000     0.425780000000     0.986900000000     0.0483568  
H889     H      0.794570000000     0.303950000000     0.866130000000     0.0382859  
H890     H      0.819410000000     0.408250000000     0.906000000000     0.0443287  
H891     H      0.798460000000     0.364550000000     0.802690000000     0.0452279  
H892     H      0.911060000000     0.380430000000     0.885190000000     0.0446536  
H893     H      0.839040000000     0.361090000000     0.828280000000     0.036846   
H894     H      0.935630000000     0.485650000000     0.922310000000     0.0460283  
H895     H      0.892490000000     0.428350000000     0.962620000000     0.038708   
H896     H      0.893510000000     0.462780000000     0.925500000000     0.0372103  
H897     H      0.874610000000     0.357000000000     0.861520000000     0.0405535  
H898     H      0.836410000000     0.326380000000     0.864970000000     0.0395617  
H899     H      0.950530000000     0.411830000000     0.957250000000     0.0411284  
H900     H      0.766370000000     0.367550000000     0.884790000000     0.037093   
H901     H      0.816630000000     0.144780000000     0.889210000000     0.041722   
H902     H      0.896200000000     0.076220000000     0.897820000000     0.0345681  
H903     H      0.889770000000     0.135480000000     0.962670000000     0.0401853  
H904     H      0.835760000000     0.199200000000     0.801500000000     0.0368547  
H905     H      0.898620000000     0.050340000000     0.940800000000     0.0379534  
H906     H      0.835350000000     0.213690000000     0.887570000000     0.0350988  
H907     H      0.839600000000     0.153840000000     0.823140000000     0.034546   
H908     H      0.801540000000     0.240510000000     0.861150000000     0.0479088  
H909     H      0.924170000000     0.109990000000     0.989700000000     0.0393723  
H910     H      0.838370000000     0.111720000000     0.920480000000     0.0440308  
H911     H      0.930190000000     0.049930000000     0.924460000000     0.0461749  
H912     H      0.891980000000     0.177710000000     0.865270000000     0.0443531  
H913     H      0.924450000000     0.096970000000     0.906740000000     0.0389151  
H914     H      0.806090000000     0.179930000000     0.795890000000     0.0471013  
H915     H      0.806530000000     0.193450000000     0.879480000000     0.040405   
H916     H      0.809020000000     0.158210000000     0.841440000000     0.0397972  
H917     H      0.913700000000     0.144750000000     0.896630000000     0.0411018  
H918     H      0.920560000000     0.131640000000     0.944970000000     0.0420338  
H919     H      0.832810000000     0.238850000000     0.844120000000     0.0376556  
H920     H      0.865390000000     0.076320000000     0.974150000000     0.037839   
H921     H      0.665340000000     0.397480000000     0.893250000000     0.0412528  
H922     H      0.584880000000     0.464840000000     0.897790000000     0.0347866  
H923     H      0.585690000000     0.401970000000     0.959470000000     0.0404975  
H924     H      0.653950000000     0.347990000000     0.801150000000     0.0385409  
H925     H      0.579530000000     0.489010000000     0.941180000000     0.0386573  
H926     H      0.646950000000     0.329100000000     0.887050000000     0.0351568  
H927     H      0.648920000000     0.391720000000     0.825220000000     0.0345861  
H928     H      0.682680000000     0.303000000000     0.862670000000     0.046786   
H929     H      0.549140000000     0.426580000000     0.984550000000     0.0382746  
H930     H      0.640790000000     0.428670000000     0.924110000000     0.0441358  
H931     H      0.548940000000     0.489890000000     0.922900000000     0.0453968  
H932     H      0.592560000000     0.365670000000     0.860540000000     0.0446603  
H933     H      0.555970000000     0.443960000000     0.903440000000     0.0383807  
H934     H      0.684690000000     0.366130000000     0.800360000000     0.0460587  
H935     H      0.676510000000     0.349170000000     0.882160000000     0.0391639  
H936     H      0.677660000000     0.385630000000     0.846160000000     0.0384608  
H937     H      0.568020000000     0.396760000000     0.891450000000     0.0410668  
H938     H      0.556540000000     0.407660000000     0.939370000000     0.0412097  
H939     H      0.652550000000     0.305050000000     0.843560000000     0.0391714  
H940     H      0.609070000000     0.461150000000     0.978060000000     0.0376665  
H941     H      0.817350000000     0.394060000000     0.641860000000     0.0412228  
H942     H      0.894390000000     0.462800000000     0.634270000000     0.035183   
H943     H      0.898280000000     0.398790000000     0.573900000000     0.0402166  
H944     H      0.831090000000     0.345290000000     0.734520000000     0.0383249  
H945     H      0.899140000000     0.485750000000     0.590050000000     0.0414529  
H946     H      0.835850000000     0.326190000000     0.648750000000     0.034509   
H947     H      0.835880000000     0.389110000000     0.710310000000     0.0345835  
H948     H      0.800810000000     0.300360000000     0.674230000000     0.0464756  
H949     H      0.934790000000     0.424880000000     0.549700000000     0.0380297  
H950     H      0.840950000000     0.424730000000     0.609670000000     0.044267   
H951     H      0.928860000000     0.489850000000     0.609430000000     0.0479607  
H952     H      0.891090000000     0.363860000000     0.673610000000     0.0442889  
H953     H      0.924500000000     0.443620000000     0.629780000000     0.0385624  
H954     H      0.800570000000     0.363840000000     0.736390000000     0.0458472  
H955     H      0.806510000000     0.346440000000     0.654260000000     0.0387359  
H956     H      0.806570000000     0.383320000000     0.690230000000     0.0385592  
H957     H      0.914690000000     0.394690000000     0.641600000000     0.0408145  
H958     H      0.926550000000     0.406280000000     0.594760000000     0.0406637  
H959     H      0.831210000000     0.302700000000     0.692760000000     0.0372407  
H960     H      0.872960000000     0.455930000000     0.552640000000     0.0379659  
H961     H      0.621180000000     0.608170000000     0.106450000000     0.0413916  
H962     H      0.663690000000     0.701100000000     0.138040000000     0.0349236  
H963     H      0.662440000000     0.638960000000     0.200470000000     0.0404033  
H964     H      0.526440000000     0.634770000000     0.087180000000     0.0394956  
H965     H      0.708100000000     0.697650000000     0.155240000000     0.0390684  
H966     H      0.569220000000     0.588460000000     0.147060000000     0.0352963  
H967     H      0.571460000000     0.650390000000     0.084540000000     0.0347977  
H968     H      0.538160000000     0.560080000000     0.118650000000     0.0482066  
H969     H      0.692170000000     0.668520000000     0.229980000000     0.0378993  
H970     H      0.660730000000     0.628120000000     0.127700000000     0.0441943  
H971     H      0.694240000000     0.730070000000     0.166320000000     0.0457983  
H972     H      0.572880000000     0.661020000000     0.157510000000     0.0446588  
H973     H      0.650980000000     0.709560000000     0.171860000000     0.0382117  
H974     H      0.540480000000     0.622470000000     0.055380000000     0.0455296  
H975     H      0.581890000000     0.579660000000     0.113290000000     0.0396479  
H976     H      0.583240000000     0.615850000000     0.076790000000     0.0383361  
H977     H      0.612370000000     0.680920000000     0.178780000000     0.0408562  
H978     H      0.650270000000     0.673180000000     0.208140000000     0.0405918  
H979     H      0.524930000000     0.592890000000     0.129690000000     0.0396838  
H980     H      0.715970000000     0.643940000000     0.166800000000     0.037074   
H981     H      0.618430000000     0.607360000000     0.426330000000     0.0411319  
H982     H      0.659130000000     0.639980000000     0.331610000000     0.0350311  
H983     H      0.664160000000     0.698370000000     0.397330000000     0.0405388  
H984     H      0.521400000000     0.596620000000     0.405270000000     0.0390771  
H985     H      0.704610000000     0.654110000000     0.333720000000     0.0396556  
H986     H      0.570210000000     0.651340000000     0.450140000000     0.0349085  
H987     H      0.565110000000     0.590820000000     0.386420000000     0.0347721  
H988     H      0.539090000000     0.623740000000     0.479450000000     0.0453935  
H989     H      0.694590000000     0.727760000000     0.368830000000     0.039214   
H990     H      0.658310000000     0.626030000000     0.404660000000     0.044135   
H991     H      0.690130000000     0.668590000000     0.303110000000     0.0453963  
H992     H      0.571320000000     0.663760000000     0.377850000000     0.0445568  
H993     H      0.648130000000     0.675220000000     0.326010000000     0.0379998  
H994     H      0.533700000000     0.562910000000     0.414620000000     0.04653    
H995     H      0.581390000000     0.616390000000     0.457030000000     0.0383549  
H996     H      0.578250000000     0.580780000000     0.419640000000     0.0384477  
H997     H      0.611180000000     0.682480000000     0.356250000000     0.0409117  
H998     H      0.651240000000     0.709210000000     0.364450000000     0.0409225  
H999     H      0.524780000000     0.636700000000     0.448010000000     0.0394056  
H1000    H      0.715040000000     0.661040000000     0.387460000000     0.0370701  
H1001    H      0.663980000000     0.900250000000     0.144210000000     0.0410894  
H1002    H      0.584670000000     0.904660000000     0.080260000000     0.0353147  
H1003    H      0.579650000000     0.964890000000     0.144240000000     0.0404829  
H1004    H      0.655270000000     0.805330000000     0.190280000000     0.0396264  
H1005    H      0.577790000000     0.948450000000     0.057180000000     0.0419099  
H1006    H      0.648820000000     0.891440000000     0.212100000000     0.0346352  
H1007    H      0.648130000000     0.831070000000     0.148090000000     0.0347879  
H1008    H      0.685620000000     0.866360000000     0.235530000000     0.0464189  
H1009    H      0.541590000000     0.987600000000     0.118980000000     0.0370534  
H1010    H      0.637920000000     0.932120000000     0.115520000000     0.044397   
H1011    H      0.548450000000     0.928070000000     0.054490000000     0.0475387  
H1012    H      0.592830000000     0.864880000000     0.177330000000     0.0446076  
H1013    H      0.554860000000     0.908000000000     0.100100000000     0.0382446  
H1014    H      0.685410000000     0.805690000000     0.171080000000     0.0447868  
H1015    H      0.677460000000     0.887060000000     0.190590000000     0.0382268  
H1016    H      0.677000000000     0.852110000000     0.153330000000     0.0380322  
H1017    H      0.566790000000     0.896600000000     0.148480000000     0.0408988  
H1018    H      0.552150000000     0.942710000000     0.137040000000     0.040316   
H1019    H      0.655430000000     0.847230000000     0.234630000000     0.039155   
H1020    H      0.602710000000     0.988440000000     0.086320000000     0.0382114  
H1021    H      0.819170000000     0.652490000000     0.144990000000     0.0417004  
H1022    H      0.897290000000     0.643720000000     0.075660000000     0.034983   
H1023    H      0.892410000000     0.578620000000     0.134880000000     0.0401751  
H1024    H      0.837460000000     0.741370000000     0.197530000000     0.0365641  
H1025    H      0.898400000000     0.600400000000     0.050250000000     0.0408673  
H1026    H      0.840810000000     0.655380000000     0.213200000000     0.0347496  
H1027    H      0.840930000000     0.719260000000     0.152480000000     0.0344975  
H1028    H      0.807320000000     0.681040000000     0.240760000000     0.0472058  
H1029    H      0.926520000000     0.551600000000     0.108570000000     0.0388292  
H1030    H      0.840320000000     0.620530000000     0.112230000000     0.0443305  
H1031    H      0.929940000000     0.616770000000     0.048180000000     0.0475595  
H1032    H      0.895110000000     0.677550000000     0.175470000000     0.0443432  
H1033    H      0.926110000000     0.634500000000     0.095340000000     0.0389129  
H1034    H      0.807150000000     0.745740000000     0.179100000000     0.0464401  
H1035    H      0.811020000000     0.661880000000     0.194040000000     0.0405017  
H1036    H      0.811090000000     0.699800000000     0.157950000000     0.0396909  
H1037    H      0.916240000000     0.645350000000     0.142900000000     0.0411117  
H1038    H      0.923040000000     0.596490000000     0.130070000000     0.0415981  
H1039    H      0.837590000000     0.699770000000     0.237040000000     0.0367257  
H1040    H      0.866860000000     0.566040000000     0.076180000000     0.038399   
H1041    H      0.855880000000     0.931610000000     0.429780000000     0.0411209  
H1042    H      0.825440000000     0.895310000000     0.333690000000     0.0347009  
H1043    H      0.821450000000     0.834880000000     0.397540000000     0.040387   
H1044    H      0.951760000000     0.954320000000     0.411420000000     0.0406676  
H1045    H      0.781120000000     0.878440000000     0.331870000000     0.040268   
H1046    H      0.906390000000     0.894270000000     0.457100000000     0.0351367  
H1047    H      0.908140000000     0.954060000000     0.392630000000     0.034557   
H1048    H      0.933940000000     0.925780000000     0.486900000000     0.0482113  
H1049    H      0.794570000000     0.803950000000     0.366130000000     0.0382491  
H1050    H      0.819410000000     0.908250000000     0.406000000000     0.0443262  
H1051    H      0.798460000000     0.864560000000     0.302690000000     0.0451977  
H1052    H      0.911060000000     0.880430000000     0.385190000000     0.0446519  
H1053    H      0.839040000000     0.861090000000     0.328280000000     0.0368634  
H1054    H      0.935630000000     0.985640000000     0.422310000000     0.04616    
H1055    H      0.892490000000     0.928340000000     0.462610000000     0.0386305  
H1056    H      0.893510000000     0.962780000000     0.425500000000     0.0372646  
H1057    H      0.874610000000     0.857000000000     0.361520000000     0.0405251  
H1058    H      0.836410000000     0.826380000000     0.364970000000     0.0395536  
H1059    H      0.950530000000     0.911830000000     0.457250000000     0.0410756  
H1060    H      0.766370000000     0.867550000000     0.384790000000     0.0370891  
H1061    H      0.816630000000     0.644780000000     0.389210000000     0.0417197  
H1062    H      0.896200000000     0.576220000000     0.397820000000     0.0346317  
H1063    H      0.889770000000     0.635480000000     0.462670000000     0.0401186  
H1064    H      0.835760000000     0.699200000000     0.301500000000     0.0368441  
H1065    H      0.898620000000     0.550340000000     0.440800000000     0.0380268  
H1066    H      0.835350000000     0.713690000000     0.387570000000     0.0350679  
H1067    H      0.839600000000     0.653840000000     0.323140000000     0.0345787  
H1068    H      0.801540000000     0.740510000000     0.361150000000     0.0478746  
H1069    H      0.924170000000     0.609990000000     0.489700000000     0.039237   
H1070    H      0.838370000000     0.611720000000     0.420480000000     0.0440581  
H1071    H      0.930190000000     0.549930000000     0.424460000000     0.0462799  
H1072    H      0.891980000000     0.677710000000     0.365270000000     0.0443474  
H1073    H      0.924450000000     0.596970000000     0.406740000000     0.0389363  
H1074    H      0.806090000000     0.679930000000     0.295890000000     0.0471039  
H1075    H      0.806530000000     0.693450000000     0.379480000000     0.040392   
H1076    H      0.809020000000     0.658210000000     0.341440000000     0.0398207  
H1077    H      0.913700000000     0.644750000000     0.396630000000     0.0411006  
H1078    H      0.920560000000     0.631640000000     0.444970000000     0.0419984  
H1079    H      0.832810000000     0.738850000000     0.344120000000     0.03763    
H1080    H      0.865390000000     0.576320000000     0.474150000000     0.0378718  
H1081    H      0.665340000000     0.897480000000     0.393250000000     0.0412481  
H1082    H      0.584880000000     0.964840000000     0.397790000000     0.0348562  
H1083    H      0.585690000000     0.901970000000     0.459470000000     0.0404387  
H1084    H      0.653950000000     0.847990000000     0.301150000000     0.0385678  
H1085    H      0.579530000000     0.989010000000     0.441180000000     0.0387342  
H1086    H      0.646950000000     0.829100000000     0.387050000000     0.03512    
H1087    H      0.648920000000     0.891720000000     0.325220000000     0.0346152  
H1088    H      0.682680000000     0.803010000000     0.362670000000     0.0467954  
H1089    H      0.549140000000     0.926580000000     0.484560000000     0.0381611  
H1090    H      0.640790000000     0.928670000000     0.424100000000     0.0441628  
H1091    H      0.548940000000     0.989890000000     0.422900000000     0.0455047  
H1092    H      0.592560000000     0.865670000000     0.360540000000     0.0446593  
H1093    H      0.555970000000     0.943960000000     0.403440000000     0.0384093  
H1094    H      0.684690000000     0.866140000000     0.300360000000     0.0460937  
H1095    H      0.676510000000     0.849170000000     0.382160000000     0.0391428  
H1096    H      0.677660000000     0.885630000000     0.346160000000     0.0384774  
H1097    H      0.568020000000     0.896760000000     0.391450000000     0.0410702  
H1098    H      0.556540000000     0.907660000000     0.439370000000     0.0411845  
H1099    H      0.652550000000     0.805050000000     0.343560000000     0.0391771  
H1100    H      0.609070000000     0.961150000000     0.478060000000     0.0377064  
H1101    H      0.817350000000     0.894060000000     0.141860000000     0.0412244  
H1102    H      0.894390000000     0.962810000000     0.134270000000     0.0352445  
H1103    H      0.898280000000     0.898790000000     0.073900000000     0.0401558  
H1104    H      0.831090000000     0.845300000000     0.234520000000     0.03832    
H1105    H      0.899140000000     0.985750000000     0.090050000000     0.0415686  
H1106    H      0.835850000000     0.826190000000     0.148750000000     0.0344773  
H1107    H      0.835880000000     0.889110000000     0.210310000000     0.0346213  
H1108    H      0.800810000000     0.800360000000     0.174230000000     0.0464561  
H1109    H      0.934790000000     0.924880000000     0.049700000000     0.0379234  
H1110    H      0.840950000000     0.924730000000     0.109670000000     0.0442734  
H1111    H      0.928860000000     0.989850000000     0.109430000000     0.0481032  
H1112    H      0.891090000000     0.863860000000     0.173610000000     0.0442902  
H1113    H      0.924500000000     0.943620000000     0.129780000000     0.0385888  
H1114    H      0.800570000000     0.863850000000     0.236390000000     0.045845   
H1115    H      0.806510000000     0.846440000000     0.154260000000     0.038718   
H1116    H      0.806570000000     0.883320000000     0.190230000000     0.0385845  
H1117    H      0.914690000000     0.894690000000     0.141600000000     0.040816   
H1118    H      0.926550000000     0.906280000000     0.094760000000     0.0406383  
H1119    H      0.831210000000     0.802700000000     0.192760000000     0.0372325  
H1120    H      0.872960000000     0.955930000000     0.052640000000     0.0380005  
H1121    H      0.621180000000     0.608170000000     0.606450000000     0.04143    
H1122    H      0.663690000000     0.701100000000     0.638040000000     0.0349618  
H1123    H      0.662440000000     0.638960000000     0.700470000000     0.0404024  
H1124    H      0.526440000000     0.634770000000     0.587180000000     0.0395308  
H1125    H      0.708100000000     0.697650000000     0.655240000000     0.039094   
H1126    H      0.569220000000     0.588460000000     0.647060000000     0.0352949  
H1127    H      0.571460000000     0.650390000000     0.584540000000     0.034868   
H1128    H      0.538160000000     0.560080000000     0.618650000000     0.0482065  
H1129    H      0.692170000000     0.668520000000     0.729980000000     0.0378972  
H1130    H      0.660730000000     0.628120000000     0.627700000000     0.0442281  
H1131    H      0.694240000000     0.730070000000     0.666320000000     0.0458161  
H1132    H      0.572880000000     0.661020000000     0.657510000000     0.0446661  
H1133    H      0.650980000000     0.709560000000     0.671860000000     0.0382207  
H1134    H      0.540480000000     0.622470000000     0.555380000000     0.0456332  
H1135    H      0.581890000000     0.579660000000     0.613290000000     0.0396669  
H1136    H      0.583240000000     0.615850000000     0.576800000000     0.0384211  
H1137    H      0.612370000000     0.680920000000     0.678780000000     0.040859   
H1138    H      0.650270000000     0.673180000000     0.708140000000     0.0405894  
H1139    H      0.524930000000     0.592890000000     0.629690000000     0.0396808  
H1140    H      0.715970000000     0.643940000000     0.666800000000     0.0370933  
H1141    H      0.618430000000     0.607360000000     0.926330000000     0.0411448  
H1142    H      0.659130000000     0.639980000000     0.831610000000     0.0350303  
H1143    H      0.664160000000     0.698370000000     0.897320000000     0.0406041  
H1144    H      0.521400000000     0.596620000000     0.905270000000     0.0390826  
H1145    H      0.704610000000     0.654110000000     0.833720000000     0.0396576  
H1146    H      0.570210000000     0.651340000000     0.950140000000     0.034974   
H1147    H      0.565110000000     0.590820000000     0.886420000000     0.0347698  
H1148    H      0.539090000000     0.623740000000     0.979450000000     0.04551    
H1149    H      0.694590000000     0.727760000000     0.868830000000     0.0392259  
H1150    H      0.658310000000     0.626030000000     0.904660000000     0.0441702  
H1151    H      0.690130000000     0.668590000000     0.803110000000     0.0453943  
H1152    H      0.571320000000     0.663760000000     0.877850000000     0.0445631  
H1153    H      0.648130000000     0.675220000000     0.826010000000     0.0379981  
H1154    H      0.533700000000     0.562910000000     0.914630000000     0.0465493  
H1155    H      0.581390000000     0.616390000000     0.957030000000     0.0384247  
H1156    H      0.578250000000     0.580780000000     0.919640000000     0.0384677  
H1157    H      0.611180000000     0.682480000000     0.856250000000     0.0409162  
H1158    H      0.651240000000     0.709210000000     0.864450000000     0.0409439  
H1159    H      0.524780000000     0.636700000000     0.948010000000     0.0394503  
H1160    H      0.715040000000     0.661040000000     0.887460000000     0.037086   
H1161    H      0.663980000000     0.900250000000     0.644210000000     0.0411067  
H1162    H      0.584670000000     0.904660000000     0.580250000000     0.0353763  
H1163    H      0.579650000000     0.964890000000     0.644240000000     0.0404793  
H1164    H      0.655270000000     0.805330000000     0.690280000000     0.0396393  
H1165    H      0.577790000000     0.948450000000     0.557170000000     0.042023   
H1166    H      0.648820000000     0.891440000000     0.712100000000     0.0346321  
H1167    H      0.648130000000     0.831070000000     0.648080000000     0.0348001  
H1168    H      0.685620000000     0.866360000000     0.735530000000     0.0464186  
H1169    H      0.541590000000     0.987600000000     0.618980000000     0.0370511  
H1170    H      0.637920000000     0.932120000000     0.615520000000     0.0444695  
H1171    H      0.548450000000     0.928070000000     0.554490000000     0.0476501  
H1172    H      0.592830000000     0.864880000000     0.677330000000     0.04461    
H1173    H      0.554860000000     0.908000000000     0.600100000000     0.0382669  
H1174    H      0.685410000000     0.805690000000     0.671080000000     0.0448105  
H1175    H      0.677460000000     0.887060000000     0.690590000000     0.0382304  
H1176    H      0.677000000000     0.852110000000     0.653330000000     0.0380484  
H1177    H      0.566790000000     0.896600000000     0.648480000000     0.0409176  
H1178    H      0.552150000000     0.942710000000     0.637040000000     0.0403135  
H1179    H      0.655430000000     0.847230000000     0.734630000000     0.039158   
H1180    H      0.602710000000     0.988440000000     0.586320000000     0.0382672  
H1181    H      0.819170000000     0.652490000000     0.644990000000     0.04172    
H1182    H      0.897290000000     0.643720000000     0.575660000000     0.0350554  
H1183    H      0.892410000000     0.578620000000     0.634880000000     0.0401741  
H1184    H      0.837460000000     0.741370000000     0.697530000000     0.036567   
H1185    H      0.898400000000     0.600400000000     0.550250000000     0.0410086  
H1186    H      0.840810000000     0.655380000000     0.713200000000     0.0347469  
H1187    H      0.840930000000     0.719260000000     0.652480000000     0.0345264  
H1188    H      0.807320000000     0.681040000000     0.740760000000     0.047204   
H1189    H      0.926520000000     0.551600000000     0.608570000000     0.0388281  
H1190    H      0.840320000000     0.620530000000     0.612230000000     0.044373   
H1191    H      0.929940000000     0.616770000000     0.548180000000     0.0476875  
H1192    H      0.895110000000     0.677550000000     0.675470000000     0.0443467  
H1193    H      0.926110000000     0.634500000000     0.595340000000     0.038935   
H1194    H      0.807150000000     0.745740000000     0.679100000000     0.0464517  
H1195    H      0.811020000000     0.661880000000     0.694040000000     0.0405051  
H1196    H      0.811090000000     0.699800000000     0.657950000000     0.0397131  
H1197    H      0.916240000000     0.645350000000     0.642900000000     0.041119   
H1198    H      0.923040000000     0.596490000000     0.630070000000     0.0415949  
H1199    H      0.837590000000     0.699770000000     0.737040000000     0.0367232  
H1200    H      0.866860000000     0.566040000000     0.576180000000     0.0384564  
H1201    H      0.855880000000     0.931610000000     0.929780000000     0.0411671  
H1202    H      0.825440000000     0.895310000000     0.833690000000     0.0347035  
H1203    H      0.821450000000     0.834880000000     0.897540000000     0.0404198  
H1204    H      0.951760000000     0.954320000000     0.911420000000     0.040668   
H1205    H      0.781120000000     0.878440000000     0.831870000000     0.0402609  
H1206    H      0.906390000000     0.894270000000     0.957100000000     0.0352422  
H1207    H      0.908140000000     0.954060000000     0.892620000000     0.0345328  
H1208    H      0.933940000000     0.925780000000     0.986900000000     0.0483556  
H1209    H      0.794570000000     0.803950000000     0.866130000000     0.038284   
H1210    H      0.819410000000     0.908250000000     0.906000000000     0.0443621  
H1211    H      0.798460000000     0.864560000000     0.802690000000     0.045194   
H1212    H      0.911060000000     0.880430000000     0.885190000000     0.0446597  
H1213    H      0.839040000000     0.861090000000     0.828280000000     0.0368663  
H1214    H      0.935630000000     0.985640000000     0.922310000000     0.0461692  
H1215    H      0.892490000000     0.928340000000     0.962620000000     0.0387417  
H1216    H      0.893510000000     0.962780000000     0.925500000000     0.0372859  
H1217    H      0.874610000000     0.857000000000     0.861520000000     0.0405569  
H1218    H      0.836410000000     0.826380000000     0.864970000000     0.0395592  
H1219    H      0.950530000000     0.911830000000     0.957250000000     0.0411201  
H1220    H      0.766370000000     0.867550000000     0.884790000000     0.0370993  
H1221    H      0.816630000000     0.644780000000     0.889210000000     0.0417406  
H1222    H      0.896200000000     0.576220000000     0.897820000000     0.0346332  
H1223    H      0.889770000000     0.635480000000     0.962670000000     0.0401834  
H1224    H      0.835760000000     0.699200000000     0.801500000000     0.0368429  
H1225    H      0.898620000000     0.550340000000     0.940800000000     0.0380574  
H1226    H      0.835350000000     0.713690000000     0.887570000000     0.035092   
H1227    H      0.839600000000     0.653840000000     0.823140000000     0.0345754  
H1228    H      0.801540000000     0.740510000000     0.861150000000     0.0479163  
H1229    H      0.924170000000     0.609990000000     0.989700000000     0.0393718  
H1230    H      0.838370000000     0.611720000000     0.920480000000     0.0440691  
H1231    H      0.930190000000     0.549930000000     0.924460000000     0.0462832  
H1232    H      0.891980000000     0.677710000000     0.865270000000     0.0443558  
H1233    H      0.924450000000     0.596970000000     0.906740000000     0.0389361  
H1234    H      0.806090000000     0.679930000000     0.795890000000     0.0471025  
H1235    H      0.806530000000     0.693450000000     0.879480000000     0.0404055  
H1236    H      0.809020000000     0.658210000000     0.841440000000     0.039823   
H1237    H      0.913700000000     0.644750000000     0.896630000000     0.041108   
H1238    H      0.920560000000     0.631640000000     0.944970000000     0.0420303  
H1239    H      0.832810000000     0.738850000000     0.844120000000     0.0376602  
H1240    H      0.865390000000     0.576320000000     0.974150000000     0.0378861  
H1241    H      0.665340000000     0.897480000000     0.893250000000     0.041275   
H1242    H      0.584880000000     0.964840000000     0.897790000000     0.0348586  
H1243    H      0.585690000000     0.901970000000     0.959470000000     0.0404951  
H1244    H      0.653950000000     0.847990000000     0.801150000000     0.0385653  
H1245    H      0.579530000000     0.989010000000     0.941180000000     0.0387669  
H1246    H      0.646950000000     0.829100000000     0.887050000000     0.0351515  
H1247    H      0.648920000000     0.891720000000     0.825220000000     0.0346136  
H1248    H      0.682680000000     0.803010000000     0.862670000000     0.0468005  
H1249    H      0.549140000000     0.926580000000     0.984550000000     0.0382731  
H1250    H      0.640790000000     0.928670000000     0.924110000000     0.0441781  
H1251    H      0.548940000000     0.989890000000     0.922900000000     0.045508   
H1252    H      0.592560000000     0.865670000000     0.860540000000     0.0446655  
H1253    H      0.555970000000     0.943960000000     0.903440000000     0.038408   
H1254    H      0.684690000000     0.866140000000     0.800360000000     0.0460908  
H1255    H      0.676510000000     0.849170000000     0.882160000000     0.0391655  
H1256    H      0.677660000000     0.885630000000     0.846160000000     0.038482   
H1257    H      0.568020000000     0.896760000000     0.891450000000     0.0410762  
H1258    H      0.556540000000     0.907660000000     0.939370000000     0.0412082  
H1259    H      0.652550000000     0.805050000000     0.843560000000     0.0391811  
H1260    H      0.609070000000     0.961150000000     0.978060000000     0.0377195  
H1261    H      0.817350000000     0.894060000000     0.641860000000     0.0412452  
H1262    H      0.894390000000     0.962810000000     0.634270000000     0.0352456  
H1263    H      0.898280000000     0.898790000000     0.573900000000     0.0402138  
H1264    H      0.831090000000     0.845300000000     0.734520000000     0.0383221  
H1265    H      0.899140000000     0.985750000000     0.590050000000     0.0415892  
H1266    H      0.835850000000     0.826190000000     0.648750000000     0.034507   
H1267    H      0.835880000000     0.889110000000     0.710310000000     0.0346184  
H1268    H      0.800810000000     0.800360000000     0.674230000000     0.0464741  
H1269    H      0.934790000000     0.924880000000     0.549700000000     0.0380288  
H1270    H      0.840950000000     0.924730000000     0.609670000000     0.0443116  
H1271    H      0.928860000000     0.989850000000     0.609430000000     0.0480934  
H1272    H      0.891090000000     0.863860000000     0.673610000000     0.0442942  
H1273    H      0.924500000000     0.943620000000     0.629780000000     0.0385862  
H1274    H      0.800570000000     0.863850000000     0.736390000000     0.0458445  
H1275    H      0.806510000000     0.846440000000     0.654260000000     0.0387415  
H1276    H      0.806570000000     0.883320000000     0.690230000000     0.038588   
H1277    H      0.914690000000     0.894690000000     0.641600000000     0.0408242  
H1278    H      0.926550000000     0.906280000000     0.594760000000     0.0406616  
H1279    H      0.831210000000     0.802700000000     0.692760000000     0.0372392  
H1280    H      0.872960000000     0.955930000000     0.552640000000     0.038023   
N1       N      0.199360000000     0.198820000000     0.198070000000    -0.16947    
N2       N      0.163290000000     0.167270000000     0.166500000000    -0.111841   
N3       N      0.070290000000     0.122180000000     0.118480000000    -0.113834   
N4       N      0.033750000000     0.091460000000     0.086940000000    -0.164156   
N5       N      0.198480000000     0.197620000000     0.336060000000    -0.169293   
N6       N      0.161740000000     0.166230000000     0.367000000000    -0.111841   
N7       N      0.067890000000     0.123790000000     0.415710000000    -0.113887   
N8       N      0.031400000000     0.093260000000     0.447620000000    -0.164456   
N9       N      0.046690000000     0.463460000000     0.082010000000    -0.169244   
N10      N      0.086040000000     0.435300000000     0.112060000000    -0.111747   
N11      N      0.144730000000     0.361160000000     0.180220000000    -0.113762   
N12      N      0.184480000000     0.331150000000     0.207750000000    -0.164626   
N13      N      0.427470000000     0.080170000000     0.074180000000    -0.167388   
N14      N      0.391310000000     0.111660000000     0.105420000000    -0.111966   
N15      N      0.344090000000     0.186610000000     0.182110000000    -0.114091   
N16      N      0.306620000000     0.216460000000     0.213110000000    -0.162833   
N17      N      0.289000000000     0.335320000000     0.335030000000    -0.168771   
N18      N      0.322290000000     0.368120000000     0.368320000000    -0.111719   
N19      N      0.408240000000     0.421190000000     0.422160000000    -0.113673   
N20      N      0.441980000000     0.454770000000     0.453960000000    -0.163116   
N21      N      0.426720000000     0.075760000000     0.460930000000    -0.167957   
N22      N      0.389500000000     0.106050000000     0.429630000000    -0.111983   
N23      N      0.340870000000     0.183310000000     0.356020000000    -0.114011   
N24      N      0.303730000000     0.213950000000     0.325140000000    -0.163015   
N25      N      0.050410000000     0.462990000000     0.458670000000    -0.16945    
N26      N      0.089070000000     0.433570000000     0.428690000000    -0.111775   
N27      N      0.144260000000     0.360550000000     0.356130000000    -0.113798   
N28      N      0.182820000000     0.330190000000     0.327120000000    -0.164292   
N29      N      0.430640000000     0.461730000000     0.074540000000    -0.16736    
N30      N      0.392570000000     0.430600000000     0.104070000000    -0.111753   
N31      N      0.339480000000     0.357970000000     0.179220000000    -0.113862   
N32      N      0.301210000000     0.328010000000     0.209510000000    -0.162749   
N33      N      0.199360000000     0.198820000000     0.698070000000    -0.169469   
N34      N      0.163290000000     0.167270000000     0.666500000000    -0.111836   
N35      N      0.070290000000     0.122180000000     0.618480000000    -0.113828   
N36      N      0.033750000000     0.091460000000     0.586940000000    -0.164148   
N37      N      0.198480000000     0.197620000000     0.836060000000    -0.169294   
N38      N      0.161740000000     0.166230000000     0.867000000000    -0.111832   
N39      N      0.067890000000     0.123790000000     0.915710000000    -0.113882   
N40      N      0.031400000000     0.093260000000     0.947620000000    -0.164431   
N41      N      0.046690000000     0.463460000000     0.582010000000    -0.16923    
N42      N      0.086040000000     0.435300000000     0.612060000000    -0.111748   
N43      N      0.144730000000     0.361160000000     0.680220000000    -0.113764   
N44      N      0.184480000000     0.331150000000     0.707750000000    -0.164585   
N45      N      0.427470000000     0.080170000000     0.574180000000    -0.167366   
N46      N      0.391310000000     0.111660000000     0.605420000000    -0.111959   
N47      N      0.344090000000     0.186610000000     0.682110000000    -0.114089   
N48      N      0.306620000000     0.216460000000     0.713110000000    -0.162833   
N49      N      0.289000000000     0.335320000000     0.835020000000    -0.168783   
N50      N      0.322290000000     0.368120000000     0.868320000000    -0.11172    
N51      N      0.408240000000     0.421190000000     0.922160000000    -0.113662   
N52      N      0.441980000000     0.454770000000     0.953960000000    -0.163089   
N53      N      0.426720000000     0.075760000000     0.960930000000    -0.167927   
N54      N      0.389500000000     0.106050000000     0.929630000000    -0.111978   
N55      N      0.340870000000     0.183310000000     0.856020000000    -0.114014   
N56      N      0.303730000000     0.213950000000     0.825140000000    -0.163001   
N57      N      0.050410000000     0.462990000000     0.958670000000    -0.16942    
N58      N      0.089070000000     0.433570000000     0.928690000000    -0.111771   
N59      N      0.144260000000     0.360550000000     0.856130000000    -0.113797   
N60      N      0.182820000000     0.330190000000     0.827120000000    -0.16432    
N61      N      0.430640000000     0.461730000000     0.574540000000    -0.167375   
N62      N      0.392570000000     0.430600000000     0.604070000000    -0.11175    
N63      N      0.339480000000     0.357970000000     0.679220000000    -0.113861   
N64      N      0.301210000000     0.328010000000     0.709510000000    -0.162709   
N65      N      0.199360000000     0.698820000000     0.198070000000    -0.169467   
N66      N      0.163290000000     0.667270000000     0.166500000000    -0.111841   
N67      N      0.070290000000     0.622180000000     0.118480000000    -0.113832   
N68      N      0.033750000000     0.591460000000     0.086940000000    -0.164156   
N69      N      0.198480000000     0.697630000000     0.336060000000    -0.169343   
N70      N      0.161740000000     0.666230000000     0.367000000000    -0.111838   
N71      N      0.067890000000     0.623790000000     0.415710000000    -0.113882   
N72      N      0.031400000000     0.593270000000     0.447620000000    -0.164403   
N73      N      0.046690000000     0.963470000000     0.082010000000    -0.16933    
N74      N      0.086040000000     0.935300000000     0.112060000000    -0.111707   
N75      N      0.144730000000     0.861160000000     0.180220000000    -0.113761   
N76      N      0.184480000000     0.831150000000     0.207750000000    -0.164585   
N77      N      0.427470000000     0.580160000000     0.074180000000    -0.167417   
N78      N      0.391310000000     0.611660000000     0.105420000000    -0.111967   
N79      N      0.344090000000     0.686620000000     0.182110000000    -0.114073   
N80      N      0.306620000000     0.716460000000     0.213110000000    -0.162833   
N81      N      0.289000000000     0.835320000000     0.335030000000    -0.168789   
N82      N      0.322290000000     0.868120000000     0.368320000000    -0.111709   
N83      N      0.408240000000     0.921190000000     0.422160000000    -0.11367    
N84      N      0.441980000000     0.954770000000     0.453960000000    -0.163122   
N85      N      0.426720000000     0.575760000000     0.460930000000    -0.167944   
N86      N      0.389500000000     0.606050000000     0.429630000000    -0.111977   
N87      N      0.340870000000     0.683310000000     0.356020000000    -0.114009   
N88      N      0.303730000000     0.713940000000     0.325140000000    -0.162978   
N89      N      0.050410000000     0.962990000000     0.458670000000    -0.169423   
N90      N      0.089070000000     0.933570000000     0.428690000000    -0.111768   
N91      N      0.144260000000     0.860550000000     0.356130000000    -0.113801   
N92      N      0.182820000000     0.830190000000     0.327120000000    -0.164245   
N93      N      0.430640000000     0.961730000000     0.074540000000    -0.167329   
N94      N      0.392570000000     0.930600000000     0.104070000000    -0.111749   
N95      N      0.339480000000     0.857970000000     0.179220000000    -0.113858   
N96      N      0.301210000000     0.828010000000     0.209510000000    -0.162749   
N97      N      0.199360000000     0.698820000000     0.698070000000    -0.169466   
N98      N      0.163290000000     0.667270000000     0.666500000000    -0.111836   
N99      N      0.070290000000     0.622180000000     0.618480000000    -0.113825   
N100     N      0.033750000000     0.591460000000     0.586940000000    -0.164147   
N101     N      0.198480000000     0.697630000000     0.836060000000    -0.169344   
N102     N      0.161740000000     0.666230000000     0.867000000000    -0.111828   
N103     N      0.067890000000     0.623790000000     0.915710000000    -0.113877   
N104     N      0.031400000000     0.593270000000     0.947620000000    -0.164378   
N105     N      0.046690000000     0.963470000000     0.582010000000    -0.169317   
N106     N      0.086040000000     0.935300000000     0.612060000000    -0.111708   
N107     N      0.144730000000     0.861160000000     0.680220000000    -0.113762   
N108     N      0.184480000000     0.831150000000     0.707750000000    -0.164544   
N109     N      0.427470000000     0.580160000000     0.574180000000    -0.167396   
N110     N      0.391310000000     0.611660000000     0.605420000000    -0.11196    
N111     N      0.344090000000     0.686620000000     0.682110000000    -0.114071   
N112     N      0.306620000000     0.716460000000     0.713110000000    -0.162834   
N113     N      0.289000000000     0.835320000000     0.835020000000    -0.168801   
N114     N      0.322290000000     0.868120000000     0.868320000000    -0.111709   
N115     N      0.408240000000     0.921190000000     0.922160000000    -0.113659   
N116     N      0.441980000000     0.954770000000     0.953960000000    -0.163095   
N117     N      0.426720000000     0.575760000000     0.960930000000    -0.167913   
N118     N      0.389500000000     0.606050000000     0.929630000000    -0.111972   
N119     N      0.340870000000     0.683310000000     0.856020000000    -0.114013   
N120     N      0.303730000000     0.713940000000     0.825140000000    -0.162964   
N121     N      0.050410000000     0.962990000000     0.958670000000    -0.169393   
N122     N      0.089070000000     0.933570000000     0.928690000000    -0.111765   
N123     N      0.144260000000     0.860550000000     0.856130000000    -0.113799   
N124     N      0.182820000000     0.830190000000     0.827120000000    -0.164274   
N125     N      0.430640000000     0.961730000000     0.574540000000    -0.167344   
N126     N      0.392570000000     0.930600000000     0.604070000000    -0.111746   
N127     N      0.339480000000     0.857970000000     0.679220000000    -0.113857   
N128     N      0.301210000000     0.828010000000     0.709510000000    -0.162709   
N129     N      0.699360000000     0.198820000000     0.198070000000    -0.169474   
N130     N      0.663290000000     0.167270000000     0.166500000000    -0.111849   
N131     N      0.570290000000     0.122180000000     0.118480000000    -0.113862   
N132     N      0.533750000000     0.091460000000     0.086940000000    -0.164268   
N133     N      0.698480000000     0.197620000000     0.336060000000    -0.169287   
N134     N      0.661740000000     0.166230000000     0.367000000000    -0.111844   
N135     N      0.567890000000     0.123790000000     0.415710000000    -0.113914   
N136     N      0.531400000000     0.093260000000     0.447620000000    -0.164574   
N137     N      0.546690000000     0.463460000000     0.082010000000    -0.169338   
N138     N      0.586040000000     0.435300000000     0.112060000000    -0.111746   
N139     N      0.644730000000     0.361160000000     0.180220000000    -0.11377    
N140     N      0.684470000000     0.331150000000     0.207750000000    -0.164563   
N141     N      0.927470000000     0.080170000000     0.074180000000    -0.16739    
N142     N      0.891310000000     0.111660000000     0.105420000000    -0.111973   
N143     N      0.844090000000     0.186610000000     0.182110000000    -0.114113   
N144     N      0.806620000000     0.216460000000     0.213110000000    -0.162824   
N145     N      0.789000000000     0.335320000000     0.335030000000    -0.16877    
N146     N      0.822290000000     0.368120000000     0.368320000000    -0.111721   
N147     N      0.908240000000     0.421190000000     0.422160000000    -0.113702   
N148     N      0.941980000000     0.454770000000     0.453960000000    -0.163135   
N149     N      0.926720000000     0.075760000000     0.460930000000    -0.167956   
N150     N      0.889500000000     0.106050000000     0.429630000000    -0.111987   
N151     N      0.840870000000     0.183310000000     0.356020000000    -0.114027   
N152     N      0.803730000000     0.213950000000     0.325140000000    -0.163012   
N153     N      0.550410000000     0.462990000000     0.458670000000    -0.169543   
N154     N      0.589070000000     0.433570000000     0.428690000000    -0.111776   
N155     N      0.644260000000     0.360550000000     0.356130000000    -0.113812   
N156     N      0.682820000000     0.330190000000     0.327120000000    -0.164294   
N157     N      0.930640000000     0.461730000000     0.074540000000    -0.167362   
N158     N      0.892570000000     0.430600000000     0.104070000000    -0.111757   
N159     N      0.839480000000     0.357970000000     0.179220000000    -0.113879   
N160     N      0.801210000000     0.328010000000     0.209510000000    -0.162751   
N161     N      0.699360000000     0.198820000000     0.698070000000    -0.169472   
N162     N      0.663290000000     0.167270000000     0.666500000000    -0.111845   
N163     N      0.570290000000     0.122180000000     0.618480000000    -0.113855   
N164     N      0.533750000000     0.091460000000     0.586940000000    -0.16426    
N165     N      0.698480000000     0.197620000000     0.836060000000    -0.169288   
N166     N      0.661740000000     0.166230000000     0.867000000000    -0.111835   
N167     N      0.567890000000     0.123790000000     0.915710000000    -0.113909   
N168     N      0.531400000000     0.093260000000     0.947620000000    -0.164549   
N169     N      0.546690000000     0.463460000000     0.582010000000    -0.169324   
N170     N      0.586040000000     0.435300000000     0.612060000000    -0.111747   
N171     N      0.644730000000     0.361160000000     0.680220000000    -0.113771   
N172     N      0.684470000000     0.331150000000     0.707750000000    -0.164523   
N173     N      0.927470000000     0.080170000000     0.574180000000    -0.167368   
N174     N      0.891310000000     0.111660000000     0.605420000000    -0.111966   
N175     N      0.844090000000     0.186610000000     0.682110000000    -0.114112   
N176     N      0.806620000000     0.216460000000     0.713110000000    -0.162825   
N177     N      0.789000000000     0.335320000000     0.835020000000    -0.168782   
N178     N      0.822290000000     0.368120000000     0.868320000000    -0.111722   
N179     N      0.908240000000     0.421190000000     0.922160000000    -0.113692   
N180     N      0.941980000000     0.454770000000     0.953960000000    -0.163107   
N181     N      0.926720000000     0.075760000000     0.960930000000    -0.167926   
N182     N      0.889500000000     0.106050000000     0.929630000000    -0.111982   
N183     N      0.840870000000     0.183310000000     0.856020000000    -0.11403    
N184     N      0.803730000000     0.213950000000     0.825140000000    -0.162999   
N185     N      0.550410000000     0.462990000000     0.958670000000    -0.169513   
N186     N      0.589070000000     0.433570000000     0.928690000000    -0.111773   
N187     N      0.644260000000     0.360550000000     0.856130000000    -0.113811   
N188     N      0.682820000000     0.330190000000     0.827120000000    -0.164323   
N189     N      0.930640000000     0.461730000000     0.574540000000    -0.167378   
N190     N      0.892570000000     0.430600000000     0.604070000000    -0.111754   
N191     N      0.839480000000     0.357970000000     0.679220000000    -0.113878   
N192     N      0.801210000000     0.328010000000     0.709510000000    -0.16271    
N193     N      0.699360000000     0.698820000000     0.198070000000    -0.169471   
N194     N      0.663290000000     0.667270000000     0.166500000000    -0.11185    
N195     N      0.570290000000     0.622180000000     0.118480000000    -0.113859   
N196     N      0.533750000000     0.591460000000     0.086940000000    -0.164268   
N197     N      0.698480000000     0.697630000000     0.336060000000    -0.169337   
N198     N      0.661740000000     0.666230000000     0.367000000000    -0.111841   
N199     N      0.567890000000     0.623790000000     0.415710000000    -0.11391    
N200     N      0.531400000000     0.593270000000     0.447620000000    -0.16452    
N201     N      0.546690000000     0.963470000000     0.082010000000    -0.169424   
N202     N      0.586040000000     0.935300000000     0.112060000000    -0.111706   
N203     N      0.644730000000     0.861160000000     0.180220000000    -0.113768   
N204     N      0.684470000000     0.831150000000     0.207750000000    -0.164523   
N205     N      0.927470000000     0.580160000000     0.074180000000    -0.16742    
N206     N      0.891310000000     0.611660000000     0.105420000000    -0.111973   
N207     N      0.844090000000     0.686620000000     0.182110000000    -0.114096   
N208     N      0.806620000000     0.716460000000     0.213110000000    -0.162825   
N209     N      0.789000000000     0.835320000000     0.335030000000    -0.168788   
N210     N      0.822290000000     0.868120000000     0.368320000000    -0.111711   
N211     N      0.908240000000     0.921190000000     0.422160000000    -0.113699   
N212     N      0.941980000000     0.954770000000     0.453960000000    -0.163141   
N213     N      0.926720000000     0.575760000000     0.460930000000    -0.167943   
N214     N      0.889500000000     0.606050000000     0.429630000000    -0.111981   
N215     N      0.840870000000     0.683310000000     0.356020000000    -0.114026   
N216     N      0.803730000000     0.713940000000     0.325140000000    -0.162976   
N217     N      0.550410000000     0.962990000000     0.458670000000    -0.169516   
N218     N      0.589070000000     0.933570000000     0.428690000000    -0.11177    
N219     N      0.644260000000     0.860550000000     0.356130000000    -0.113814   
N220     N      0.682820000000     0.830190000000     0.327120000000    -0.164248   
N221     N      0.930640000000     0.961730000000     0.074540000000    -0.167331   
N222     N      0.892570000000     0.930600000000     0.104070000000    -0.111753   
N223     N      0.839480000000     0.857970000000     0.179220000000    -0.113875   
N224     N      0.801210000000     0.828010000000     0.209510000000    -0.162751   
N225     N      0.699360000000     0.698820000000     0.698070000000    -0.16947    
N226     N      0.663290000000     0.667270000000     0.666500000000    -0.111845   
N227     N      0.570290000000     0.622180000000     0.618480000000    -0.113852   
N228     N      0.533750000000     0.591460000000     0.586940000000    -0.164259   
N229     N      0.698480000000     0.697630000000     0.836060000000    -0.169338   
N230     N      0.661740000000     0.666230000000     0.867000000000    -0.111831   
N231     N      0.567890000000     0.623790000000     0.915710000000    -0.113905   
N232     N      0.531400000000     0.593270000000     0.947620000000    -0.164495   
N233     N      0.546690000000     0.963470000000     0.582010000000    -0.16941    
N234     N      0.586040000000     0.935300000000     0.612060000000    -0.111707   
N235     N      0.644730000000     0.861160000000     0.680220000000    -0.11377    
N236     N      0.684470000000     0.831150000000     0.707750000000    -0.164482   
N237     N      0.927470000000     0.580160000000     0.574180000000    -0.167398   
N238     N      0.891310000000     0.611660000000     0.605420000000    -0.111967   
N239     N      0.844090000000     0.686620000000     0.682110000000    -0.114094   
N240     N      0.806620000000     0.716460000000     0.713110000000    -0.162825   
N241     N      0.789000000000     0.835320000000     0.835020000000    -0.168801   
N242     N      0.822290000000     0.868120000000     0.868320000000    -0.111711   
N243     N      0.908240000000     0.921190000000     0.922160000000    -0.113689   
N244     N      0.941980000000     0.954770000000     0.953960000000    -0.163113   
N245     N      0.926720000000     0.575760000000     0.960930000000    -0.167912   
N246     N      0.889500000000     0.606050000000     0.929630000000    -0.111977   
N247     N      0.840870000000     0.683310000000     0.856020000000    -0.114029   
N248     N      0.803730000000     0.713940000000     0.825140000000    -0.162962   
N249     N      0.550410000000     0.962990000000     0.958670000000    -0.169485   
N250     N      0.589070000000     0.933570000000     0.928690000000    -0.111766   
N251     N      0.644260000000     0.860550000000     0.856130000000    -0.113813   
N252     N      0.682820000000     0.830190000000     0.827120000000    -0.164277   
N253     N      0.930640000000     0.961730000000     0.574540000000    -0.167346   
N254     N      0.892570000000     0.930600000000     0.604070000000    -0.11175    
N255     N      0.839480000000     0.857970000000     0.679220000000    -0.113874   
N256     N      0.801210000000     0.828010000000     0.709510000000    -0.162711   
O1       O      0.461870000000     0.465290000000     0.040530000000    -0.368311   
O2       O      0.457770000000     0.075930000000     0.495160000000    -0.363666   
O3       O      0.457560000000     0.044860000000     0.072060000000    -0.364007   
O4       O      0.466420000000     0.494310000000     0.459520000000    -0.367351   
O5       O      0.459180000000     0.078730000000     0.040690000000    -0.360691   
O6       O      0.466120000000     0.462600000000     0.493100000000    -0.366466   
O7       O      0.459230000000     0.042930000000     0.462910000000    -0.368487   
O8       O      0.459550000000     0.498180000000     0.072840000000    -0.366559   
O9       O      0.020730000000     0.465440000000     0.494100000000    -0.36114    
O10      O      0.012320000000     0.083370000000     0.046020000000    -0.367686   
O11      O      0.016740000000     0.498680000000     0.077090000000    -0.365138   
O12      O      0.010420000000     0.052070000000     0.456070000000    -0.36543    
O13      O      0.011410000000     0.084230000000     0.489190000000    -0.367879   
O14      O      0.019170000000     0.465810000000     0.044770000000    -0.365743   
O15      O      0.020560000000     0.498460000000     0.461820000000    -0.367017   
O16      O      0.010930000000     0.051230000000     0.079160000000    -0.363782   
O17      O      0.501680000000     0.523060000000     0.018370000000    -0.585432   
O18      O      0.270480000000     0.293340000000     0.211420000000    -0.362607   
O19      O      0.271700000000     0.247330000000     0.323220000000    -0.367266   
O20      O      0.266750000000     0.327890000000     0.294550000000    -0.369616   
O21      O      0.274170000000     0.215680000000     0.245760000000    -0.361633   
O22      O      0.264410000000     0.296130000000     0.327990000000    -0.365409   
O23      O      0.273760000000     0.248900000000     0.213680000000    -0.361495   
O24      O      0.273050000000     0.214680000000     0.290610000000    -0.361566   
O25      O      0.271570000000     0.324840000000     0.245140000000    -0.371673   
O26      O      0.220430000000     0.240090000000     0.206180000000    -0.368677   
O27      O      0.211360000000     0.293530000000     0.324080000000    -0.365881   
O28      O      0.214180000000     0.327440000000     0.242900000000    -0.365204   
O29      O      0.219300000000     0.207320000000     0.295070000000    -0.368172   
O30      O      0.220250000000     0.238620000000     0.328980000000    -0.366232   
O31      O      0.212860000000     0.294270000000     0.210820000000    -0.369379   
O32      O      0.220360000000     0.207660000000     0.239070000000    -0.36846    
O33      O      0.213010000000     0.326950000000     0.292250000000    -0.359571   
O34      O      0.229900000000     0.268780000000     0.267630000000    -0.585752   
O35      O      0.461870000000     0.465290000000     0.540530000000    -0.368273   
O36      O      0.457770000000     0.075930000000     0.995160000000    -0.363287   
O37      O      0.457560000000     0.044860000000     0.572060000000    -0.363994   
O38      O      0.466420000000     0.494310000000     0.959520000000    -0.367345   
O39      O      0.459180000000     0.078730000000     0.540690000000    -0.36061    
O40      O      0.466120000000     0.462600000000     0.993100000000    -0.366086   
O41      O      0.459230000000     0.042930000000     0.962910000000    -0.368468   
O42      O      0.459550000000     0.498180000000     0.572830000000    -0.366679   
O43      O      0.020730000000     0.465440000000     0.994100000000    -0.360772   
O44      O      0.012320000000     0.083370000000     0.546020000000    -0.367658   
O45      O      0.016740000000     0.498680000000     0.577090000000    -0.365143   
O46      O      0.010420000000     0.052070000000     0.956070000000    -0.365433   
O47      O      0.011410000000     0.084230000000     0.989190000000    -0.367525   
O48      O      0.019170000000     0.465810000000     0.544770000000    -0.365693   
O49      O      0.020560000000     0.498460000000     0.961820000000    -0.366998   
O50      O      0.010930000000     0.051230000000     0.579160000000    -0.36379    
O51      O      0.501680000000     0.523060000000     0.518370000000    -0.585284   
O52      O      0.270480000000     0.293340000000     0.711420000000    -0.362543   
O53      O      0.271700000000     0.247330000000     0.823220000000    -0.367272   
O54      O      0.266750000000     0.327890000000     0.794550000000    -0.369599   
O55      O      0.274170000000     0.215680000000     0.745760000000    -0.361634   
O56      O      0.264410000000     0.296130000000     0.828000000000    -0.365301   
O57      O      0.273760000000     0.248900000000     0.713680000000    -0.361491   
O58      O      0.273050000000     0.214680000000     0.790610000000    -0.361568   
O59      O      0.271570000000     0.324840000000     0.745150000000    -0.371567   
O60      O      0.220430000000     0.240090000000     0.706180000000    -0.368669   
O61      O      0.211360000000     0.293530000000     0.824070000000    -0.365992   
O62      O      0.214180000000     0.327440000000     0.742910000000    -0.365097   
O63      O      0.219300000000     0.207320000000     0.795070000000    -0.368172   
O64      O      0.220250000000     0.238620000000     0.828980000000    -0.366223   
O65      O      0.212860000000     0.294270000000     0.710820000000    -0.369316   
O66      O      0.220360000000     0.207660000000     0.739070000000    -0.368461   
O67      O      0.213010000000     0.326950000000     0.792250000000    -0.359591   
O68      O      0.229900000000     0.268780000000     0.767630000000    -0.585747   
O69      O      0.461870000000     0.965290000000     0.040530000000    -0.368307   
O70      O      0.457770000000     0.575930000000     0.495160000000    -0.363711   
O71      O      0.457560000000     0.544860000000     0.072060000000    -0.363958   
O72      O      0.466420000000     0.994300000000     0.459520000000    -0.367105   
O73      O      0.459180000000     0.578730000000     0.040690000000    -0.360764   
O74      O      0.466120000000     0.962600000000     0.493100000000    -0.366531   
O75      O      0.459230000000     0.542930000000     0.462910000000    -0.368423   
O76      O      0.459550000000     0.998180000000     0.072840000000    -0.366192   
O77      O      0.020730000000     0.965440000000     0.494100000000    -0.361132   
O78      O      0.012320000000     0.583370000000     0.046020000000    -0.367756   
O79      O      0.016740000000     0.998680000000     0.077090000000    -0.364798   
O80      O      0.010420000000     0.552070000000     0.456070000000    -0.365399   
O81      O      0.011410000000     0.584230000000     0.489190000000    -0.367929   
O82      O      0.019170000000     0.965820000000     0.044770000000    -0.365884   
O83      O      0.020560000000     0.998460000000     0.461820000000    -0.366657   
O84      O      0.010930000000     0.551230000000     0.079160000000    -0.363776   
O85      O      0.501680000000     0.023060000000     0.018370000000    -0.58563    
O86      O      0.270480000000     0.793340000000     0.211420000000    -0.362613   
O87      O      0.271700000000     0.747330000000     0.323220000000    -0.367256   
O88      O      0.266750000000     0.827890000000     0.294550000000    -0.3696     
O89      O      0.274170000000     0.715680000000     0.245760000000    -0.361632   
O90      O      0.264410000000     0.796130000000     0.327990000000    -0.365411   
O91      O      0.273760000000     0.748900000000     0.213680000000    -0.3615     
O92      O      0.273050000000     0.714680000000     0.290610000000    -0.361546   
O93      O      0.271570000000     0.824840000000     0.245140000000    -0.371656   
O94      O      0.220430000000     0.740090000000     0.206180000000    -0.368672   
O95      O      0.211360000000     0.793530000000     0.324080000000    -0.365852   
O96      O      0.214180000000     0.827440000000     0.242900000000    -0.365135   
O97      O      0.219300000000     0.707320000000     0.295070000000    -0.36819    
O98      O      0.220250000000     0.738620000000     0.328980000000    -0.36625    
O99      O      0.212860000000     0.794260000000     0.210820000000    -0.369267   
O100     O      0.220360000000     0.707660000000     0.239070000000    -0.368456   
O101     O      0.213010000000     0.826960000000     0.292250000000    -0.359436   
O102     O      0.229900000000     0.768780000000     0.267630000000    -0.585753   
O103     O      0.461870000000     0.965290000000     0.540530000000    -0.368269   
O104     O      0.457770000000     0.575930000000     0.995160000000    -0.363331   
O105     O      0.457560000000     0.544860000000     0.572060000000    -0.363945   
O106     O      0.466420000000     0.994300000000     0.959520000000    -0.367099   
O107     O      0.459180000000     0.578730000000     0.540690000000    -0.360683   
O108     O      0.466120000000     0.962600000000     0.993100000000    -0.366151   
O109     O      0.459230000000     0.542930000000     0.962910000000    -0.368405   
O110     O      0.459550000000     0.998180000000     0.572830000000    -0.366311   
O111     O      0.020730000000     0.965440000000     0.994100000000    -0.360763   
O112     O      0.012320000000     0.583370000000     0.546020000000    -0.367728   
O113     O      0.016740000000     0.998680000000     0.577090000000    -0.364802   
O114     O      0.010420000000     0.552070000000     0.956070000000    -0.365403   
O115     O      0.011410000000     0.584230000000     0.989190000000    -0.367575   
O116     O      0.019170000000     0.965820000000     0.544770000000    -0.365833   
O117     O      0.020560000000     0.998460000000     0.961820000000    -0.366638   
O118     O      0.010930000000     0.551230000000     0.579160000000    -0.363785   
O119     O      0.501680000000     0.023060000000     0.518370000000    -0.585483   
O120     O      0.270480000000     0.793340000000     0.711420000000    -0.362549   
O121     O      0.271700000000     0.747330000000     0.823220000000    -0.367261   
O122     O      0.266750000000     0.827890000000     0.794550000000    -0.369584   
O123     O      0.274170000000     0.715680000000     0.745760000000    -0.361634   
O124     O      0.264410000000     0.796130000000     0.828000000000    -0.365303   
O125     O      0.273760000000     0.748900000000     0.713680000000    -0.361496   
O126     O      0.273050000000     0.714680000000     0.790610000000    -0.361548   
O127     O      0.271570000000     0.824840000000     0.745150000000    -0.37155    
O128     O      0.220430000000     0.740090000000     0.706180000000    -0.368665   
O129     O      0.211360000000     0.793530000000     0.824070000000    -0.365963   
O130     O      0.214180000000     0.827440000000     0.742910000000    -0.365029   
O131     O      0.219300000000     0.707320000000     0.795070000000    -0.368191   
O132     O      0.220250000000     0.738620000000     0.828980000000    -0.36624    
O133     O      0.212860000000     0.794260000000     0.710820000000    -0.369204   
O134     O      0.220360000000     0.707660000000     0.739070000000    -0.368456   
O135     O      0.213010000000     0.826960000000     0.792250000000    -0.359455   
O136     O      0.229900000000     0.768780000000     0.767630000000    -0.585748   
O137     O      0.961870000000     0.465290000000     0.040530000000    -0.368215   
O138     O      0.957770000000     0.075930000000     0.495160000000    -0.363581   
O139     O      0.957560000000     0.044860000000     0.072060000000    -0.363922   
O140     O      0.966420000000     0.494310000000     0.459520000000    -0.367308   
O141     O      0.959180000000     0.078730000000     0.040690000000    -0.360635   
O142     O      0.966120000000     0.462600000000     0.493100000000    -0.366398   
O143     O      0.959230000000     0.042930000000     0.462910000000    -0.368406   
O144     O      0.959550000000     0.498180000000     0.072840000000    -0.36647    
O145     O      0.520730000000     0.465440000000     0.494100000000    -0.361952   
O146     O      0.512320000000     0.083370000000     0.046020000000    -0.368531   
O147     O      0.516740000000     0.498680000000     0.077090000000    -0.365946   
O148     O      0.510420000000     0.052070000000     0.456070000000    -0.36631    
O149     O      0.511410000000     0.084230000000     0.489190000000    -0.36873    
O150     O      0.519170000000     0.465810000000     0.044770000000    -0.366554   
O151     O      0.520560000000     0.498460000000     0.461820000000    -0.367825   
O152     O      0.510930000000     0.051230000000     0.079160000000    -0.364633   
O153     O      0.001680000000     0.523060000000     0.018370000000    -0.58348    
O154     O      0.770480000000     0.293340000000     0.211420000000    -0.362602   
O155     O      0.771700000000     0.247330000000     0.323220000000    -0.36725    
O156     O      0.766750000000     0.327890000000     0.294550000000    -0.369614   
O157     O      0.774170000000     0.215680000000     0.245760000000    -0.361555   
O158     O      0.764410000000     0.296130000000     0.327990000000    -0.365406   
O159     O      0.773760000000     0.248900000000     0.213680000000    -0.36148    
O160     O      0.773050000000     0.214680000000     0.290610000000    -0.361479   
O161     O      0.771570000000     0.324840000000     0.245140000000    -0.371672   
O162     O      0.720430000000     0.240090000000     0.206180000000    -0.368687   
O163     O      0.711360000000     0.293530000000     0.324080000000    -0.365884   
O164     O      0.714180000000     0.327440000000     0.242900000000    -0.365177   
O165     O      0.719310000000     0.207320000000     0.295070000000    -0.368243   
O166     O      0.720250000000     0.238620000000     0.328980000000    -0.366223   
O167     O      0.712860000000     0.294270000000     0.210820000000    -0.369354   
O168     O      0.720360000000     0.207660000000     0.239070000000    -0.368529   
O169     O      0.713010000000     0.326950000000     0.292250000000    -0.359571   
O170     O      0.729900000000     0.268780000000     0.267630000000    -0.585793   
O171     O      0.961870000000     0.465290000000     0.540530000000    -0.368177   
O172     O      0.957770000000     0.075930000000     0.995160000000    -0.363201   
O173     O      0.957560000000     0.044860000000     0.572060000000    -0.363909   
O174     O      0.966420000000     0.494310000000     0.959520000000    -0.367302   
O175     O      0.959180000000     0.078730000000     0.540690000000    -0.360554   
O176     O      0.966120000000     0.462600000000     0.993100000000    -0.366017   
O177     O      0.959230000000     0.042930000000     0.962910000000    -0.368388   
O178     O      0.959550000000     0.498180000000     0.572830000000    -0.366589   
O179     O      0.520730000000     0.465440000000     0.994100000000    -0.361581   
O180     O      0.512320000000     0.083370000000     0.546020000000    -0.368503   
O181     O      0.516740000000     0.498680000000     0.577090000000    -0.365951   
O182     O      0.510420000000     0.052070000000     0.956070000000    -0.366311   
O183     O      0.511410000000     0.084230000000     0.989190000000    -0.368374   
O184     O      0.519170000000     0.465810000000     0.544770000000    -0.366504   
O185     O      0.520560000000     0.498460000000     0.961820000000    -0.367804   
O186     O      0.510930000000     0.051230000000     0.579160000000    -0.364642   
O187     O      0.001680000000     0.523060000000     0.518370000000    -0.58333    
O188     O      0.770480000000     0.293340000000     0.711420000000    -0.362539   
O189     O      0.771700000000     0.247330000000     0.823220000000    -0.367255   
O190     O      0.766750000000     0.327890000000     0.794550000000    -0.369598   
O191     O      0.774170000000     0.215680000000     0.745760000000    -0.361557   
O192     O      0.764410000000     0.296130000000     0.828000000000    -0.365298   
O193     O      0.773760000000     0.248900000000     0.713680000000    -0.361476   
O194     O      0.773050000000     0.214680000000     0.790610000000    -0.361481   
O195     O      0.771570000000     0.324840000000     0.745150000000    -0.371565   
O196     O      0.720430000000     0.240090000000     0.706180000000    -0.368679   
O197     O      0.711360000000     0.293530000000     0.824070000000    -0.365995   
O198     O      0.714180000000     0.327440000000     0.742910000000    -0.36507    
O199     O      0.719310000000     0.207320000000     0.795070000000    -0.368243   
O200     O      0.720250000000     0.238620000000     0.828980000000    -0.366213   
O201     O      0.712860000000     0.294270000000     0.710820000000    -0.369291   
O202     O      0.720360000000     0.207660000000     0.739070000000    -0.368529   
O203     O      0.713010000000     0.326950000000     0.792250000000    -0.359591   
O204     O      0.729900000000     0.268780000000     0.767630000000    -0.585788   
O205     O      0.961870000000     0.965290000000     0.040530000000    -0.368211   
O206     O      0.957770000000     0.575930000000     0.495160000000    -0.363626   
O207     O      0.957560000000     0.544860000000     0.072060000000    -0.363872   
O208     O      0.966420000000     0.994300000000     0.459520000000    -0.367061   
O209     O      0.959180000000     0.578730000000     0.040690000000    -0.360708   
O210     O      0.966120000000     0.962600000000     0.493100000000    -0.366463   
O211     O      0.959230000000     0.542930000000     0.462910000000    -0.368343   
O212     O      0.959550000000     0.998180000000     0.072840000000    -0.366102   
O213     O      0.520730000000     0.965440000000     0.494100000000    -0.361942   
O214     O      0.512320000000     0.583370000000     0.046020000000    -0.368601   
O215     O      0.516740000000     0.998680000000     0.077090000000    -0.365603   
O216     O      0.510420000000     0.552070000000     0.456070000000    -0.36628    
O217     O      0.511410000000     0.584230000000     0.489190000000    -0.36878    
O218     O      0.519170000000     0.965820000000     0.044770000000    -0.366693   
O219     O      0.520560000000     0.998460000000     0.461820000000    -0.367463   
O220     O      0.510930000000     0.551230000000     0.079160000000    -0.364628   
O221     O      0.001680000000     0.023060000000     0.018370000000    -0.583679   
O222     O      0.770480000000     0.793340000000     0.211420000000    -0.362608   
O223     O      0.771700000000     0.747330000000     0.323220000000    -0.36724    
O224     O      0.766750000000     0.827890000000     0.294550000000    -0.369598   
O225     O      0.774170000000     0.715680000000     0.245760000000    -0.361554   
O226     O      0.764410000000     0.796130000000     0.327990000000    -0.365408   
O227     O      0.773760000000     0.748900000000     0.213680000000    -0.361485   
O228     O      0.773050000000     0.714680000000     0.290610000000    -0.361459   
O229     O      0.771570000000     0.824840000000     0.245140000000    -0.371655   
O230     O      0.720430000000     0.740090000000     0.206180000000    -0.368683   
O231     O      0.711360000000     0.793530000000     0.324080000000    -0.365855   
O232     O      0.714180000000     0.827440000000     0.242900000000    -0.365108   
O233     O      0.719310000000     0.707320000000     0.295070000000    -0.368261   
O234     O      0.720250000000     0.738620000000     0.328980000000    -0.366241   
O235     O      0.712860000000     0.794260000000     0.210820000000    -0.369242   
O236     O      0.720360000000     0.707660000000     0.239070000000    -0.368524   
O237     O      0.713010000000     0.826960000000     0.292250000000    -0.359436   
O238     O      0.729900000000     0.768780000000     0.267630000000    -0.585794   
O239     O      0.961870000000     0.965290000000     0.540530000000    -0.368172   
O240     O      0.957770000000     0.575930000000     0.995160000000    -0.363246   
O241     O      0.957560000000     0.544860000000     0.572060000000    -0.36386    
O242     O      0.966420000000     0.994300000000     0.959520000000    -0.367055   
O243     O      0.959180000000     0.578730000000     0.540690000000    -0.360627   
O244     O      0.966120000000     0.962600000000     0.993100000000    -0.366082   
O245     O      0.959230000000     0.542930000000     0.962910000000    -0.368325   
O246     O      0.959550000000     0.998180000000     0.572830000000    -0.366221   
O247     O      0.520730000000     0.965440000000     0.994100000000    -0.361571   
O248     O      0.512320000000     0.583370000000     0.546020000000    -0.368574   
O249     O      0.516740000000     0.998680000000     0.577090000000    -0.365607   
O250     O      0.510420000000     0.552070000000     0.956070000000    -0.366281   
O251     O      0.511410000000     0.584230000000     0.989190000000    -0.368424   
O252     O      0.519170000000     0.965820000000     0.544770000000    -0.366642   
O253     O      0.520560000000     0.998460000000     0.961820000000    -0.367442   
O254     O      0.510930000000     0.551230000000     0.579160000000    -0.364637   
O255     O      0.001680000000     0.023060000000     0.518370000000    -0.58353    
O256     O      0.770480000000     0.793340000000     0.711420000000    -0.362545   
O257     O      0.771700000000     0.747330000000     0.823220000000    -0.367245   
O258     O      0.766750000000     0.827890000000     0.794550000000    -0.369582   
O259     O      0.774170000000     0.715680000000     0.745760000000    -0.361556   
O260     O      0.764410000000     0.796130000000     0.828000000000    -0.3653     
O261     O      0.773760000000     0.748900000000     0.713680000000    -0.361481   
O262     O      0.773050000000     0.714680000000     0.790610000000    -0.361461   
O263     O      0.771570000000     0.824840000000     0.745150000000    -0.371548   
O264     O      0.720430000000     0.740090000000     0.706180000000    -0.368675   
O265     O      0.711360000000     0.793530000000     0.824070000000    -0.365966   
O266     O      0.714180000000     0.827440000000     0.742910000000    -0.365002   
O267     O      0.719310000000     0.707320000000     0.795070000000    -0.368261   
O268     O      0.720250000000     0.738620000000     0.828980000000    -0.366231   
O269     O      0.712860000000     0.794260000000     0.710820000000    -0.369179   
O270     O      0.720360000000     0.707660000000     0.739070000000    -0.368525   
O271     O      0.713010000000     0.826960000000     0.792250000000    -0.359456   
O272     O      0.729900000000     0.768780000000     0.767630000000    -0.585789   
S1       S      0.217260000000     0.146570000000     0.195020000000    -0.0393346  
S2       S      0.218150000000     0.189370000000     0.386740000000    -0.0392813  
S3       S      0.081760000000     0.501370000000     0.098610000000    -0.0396374  
S4       S      0.385910000000     0.048040000000     0.085150000000    -0.0460204  
S5       S      0.267540000000     0.339060000000     0.385400000000    -0.0352461  
S6       S      0.384390000000     0.084780000000     0.492380000000    -0.0469359  
S7       S      0.089250000000     0.449690000000     0.493460000000    -0.0426505  
S8       S      0.393990000000     0.445360000000     0.038410000000    -0.0438528  
S9       S      0.217260000000     0.146570000000     0.695020000000    -0.0393274  
S10      S      0.218150000000     0.189370000000     0.886740000000    -0.0392141  
S11      S      0.081760000000     0.501370000000     0.598610000000    -0.0395705  
S12      S      0.385910000000     0.048040000000     0.585160000000    -0.0459213  
S13      S      0.267540000000     0.339060000000     0.885400000000    -0.0351621  
S14      S      0.384390000000     0.084780000000     0.992380000000    -0.0465536  
S15      S      0.089250000000     0.449690000000     0.993470000000    -0.0422606  
S16      S      0.393990000000     0.445360000000     0.538410000000    -0.0435016  
S17      S      0.217260000000     0.646570000000     0.195020000000    -0.0392671  
S18      S      0.218150000000     0.689370000000     0.386740000000    -0.03928    
S19      S      0.081760000000     0.001380000000     0.098610000000    -0.0407588  
S20      S      0.385910000000     0.548040000000     0.085150000000    -0.0457085  
S21      S      0.267540000000     0.839050000000     0.385400000000    -0.0352167  
S22      S      0.384390000000     0.584780000000     0.492380000000    -0.0468486  
S23      S      0.089250000000     0.949690000000     0.493460000000    -0.0425542  
S24      S      0.393990000000     0.945360000000     0.038410000000    -0.0437564  
S25      S      0.217260000000     0.646570000000     0.695020000000    -0.0392597  
S26      S      0.218150000000     0.689370000000     0.886740000000    -0.0392127  
S27      S      0.081760000000     0.001380000000     0.598610000000    -0.0406945  
S28      S      0.385910000000     0.548040000000     0.585160000000    -0.0456085  
S29      S      0.267540000000     0.839050000000     0.885400000000    -0.0351328  
S30      S      0.384390000000     0.584780000000     0.992380000000    -0.0464658  
S31      S      0.089250000000     0.949690000000     0.993470000000    -0.0421646  
S32      S      0.393990000000     0.945360000000     0.538410000000    -0.043405   
S33      S      0.717260000000     0.146570000000     0.195020000000    -0.0393143  
S34      S      0.718150000000     0.189370000000     0.386740000000    -0.0392573  
S35      S      0.581760000000     0.501370000000     0.098610000000    -0.0396714  
S36      S      0.885910000000     0.048040000000     0.085150000000    -0.0459928  
S37      S      0.767540000000     0.339060000000     0.385400000000    -0.0352281  
S38      S      0.884390000000     0.084780000000     0.492380000000    -0.0468993  
S39      S      0.589250000000     0.449690000000     0.493460000000    -0.0426801  
S40      S      0.893990000000     0.445360000000     0.038410000000    -0.0438332  
S41      S      0.717260000000     0.146570000000     0.695020000000    -0.0393071  
S42      S      0.718150000000     0.189370000000     0.886740000000    -0.0391899  
S43      S      0.581760000000     0.501370000000     0.598610000000    -0.0396044  
S44      S      0.885910000000     0.048040000000     0.585160000000    -0.0458937  
S45      S      0.767540000000     0.339060000000     0.885400000000    -0.0351439  
S46      S      0.884390000000     0.084780000000     0.992380000000    -0.0465164  
S47      S      0.589250000000     0.449690000000     0.993470000000    -0.042289   
S48      S      0.893990000000     0.445360000000     0.538410000000    -0.0434818  
S49      S      0.717260000000     0.646570000000     0.195020000000    -0.0392467  
S50      S      0.718150000000     0.689370000000     0.386740000000    -0.0392559  
S51      S      0.581760000000     0.001380000000     0.098610000000    -0.0407951  
S52      S      0.885910000000     0.548040000000     0.085150000000    -0.0456808  
S53      S      0.767540000000     0.839050000000     0.385400000000    -0.0351987  
S54      S      0.884390000000     0.584780000000     0.492380000000    -0.046812   
S55      S      0.589250000000     0.949690000000     0.493460000000    -0.0425835  
S56      S      0.893990000000     0.945360000000     0.038410000000    -0.0437367  
S57      S      0.717260000000     0.646570000000     0.695020000000    -0.0392393  
S58      S      0.718150000000     0.689370000000     0.886740000000    -0.0391885  
S59      S      0.581760000000     0.001380000000     0.598610000000    -0.0407307  
S60      S      0.885910000000     0.548040000000     0.585160000000    -0.0455807  
S61      S      0.767540000000     0.839050000000     0.885400000000    -0.0351146  
S62      S      0.884390000000     0.584780000000     0.992380000000    -0.0464285  
S63      S      0.589250000000     0.949690000000     0.993470000000    -0.0421927  
S64      S      0.893990000000     0.945360000000     0.538410000000    -0.0433851  


