data_structure

_audit_creation_method RASPA-1.0
_audit_creation_date 2023-5-25
_audit_author_name 'Poobodin Mano'

_cell_length_a    60.4842
_cell_length_b    40.8312
_cell_length_c    40.2554
_cell_angle_alpha 90
_cell_angle_beta  90
_cell_angle_gamma 90
_cell_volume      99416.4

_symmetry_cell_setting          triclinic
_symmetry_space_group_name_Hall 'P 1'
_symmetry_space_group_name_H-M  'P 1'
_symmetry_Int_Tables_number     1

_symmetry_equiv_pos_as_xyz 'x,y,z'

loop_
_atom_site_label
_atom_site_type_symbol
_atom_site_fract_x
_atom_site_fract_y
_atom_site_fract_z
_atom_site_charge
Br1      Br     0.130730000000     0.225220000000     0.284570000000    -0.219722   
Br2      Br     0.999230000000     0.131630000000     0.542940000000    -0.243634   
Br3      Br     0.125660000000     0.442050000000     0.232970000000    -0.226457   
Br4      Br     0.196920000000     0.273100000000     0.223930000000    -0.218457   
Br5      Br     0.199160000000     0.451600000000     0.516740000000    -0.23135    
Br6      Br     0.377590000000     0.188520000000     0.484890000000    -0.229477   
Br7      Br     0.949390000000     0.523560000000     0.477910000000    -0.22942    
Br8      Br     0.375380000000     0.532590000000     0.261190000000    -0.230684   
Br9      Br     0.130730000000     0.225220000000     0.784570000000    -0.219721   
Br10     Br     0.999230000000     0.131630000000     0.042940000000    -0.243634   
Br11     Br     0.125660000000     0.442050000000     0.732970000000    -0.226459   
Br12     Br     0.196920000000     0.273100000000     0.723940000000    -0.218473   
Br13     Br     0.199160000000     0.451600000000     0.016740000000    -0.231353   
Br14     Br     0.377590000000     0.188520000000     0.984890000000    -0.229474   
Br15     Br     0.949390000000     0.523560000000     0.977910000000    -0.229418   
Br16     Br     0.375380000000     0.532590000000     0.761190000000    -0.230681   
Br17     Br     0.130730000000     0.725220000000     0.284570000000    -0.219724   
Br18     Br     0.999230000000     0.631630000000     0.542940000000    -0.243635   
Br19     Br     0.125660000000     0.942050000000     0.232970000000    -0.226464   
Br20     Br     0.196920000000     0.773100000000     0.223930000000    -0.218432   
Br21     Br     0.199160000000     0.951600000000     0.516740000000    -0.231357   
Br22     Br     0.377590000000     0.688520000000     0.484890000000    -0.229477   
Br23     Br     0.949390000000     0.023550000000     0.477910000000    -0.229398   
Br24     Br     0.375380000000     0.032590000000     0.261190000000    -0.230675   
Br25     Br     0.130730000000     0.725220000000     0.784570000000    -0.219723   
Br26     Br     0.999230000000     0.631630000000     0.042940000000    -0.243635   
Br27     Br     0.125660000000     0.942050000000     0.732970000000    -0.226465   
Br28     Br     0.196920000000     0.773100000000     0.723940000000    -0.218448   
Br29     Br     0.199160000000     0.951600000000     0.016740000000    -0.231361   
Br30     Br     0.377590000000     0.688520000000     0.984890000000    -0.229474   
Br31     Br     0.949390000000     0.023550000000     0.977910000000    -0.229396   
Br32     Br     0.375380000000     0.032590000000     0.761190000000    -0.230672   
Br33     Br     0.630730000000     0.225220000000     0.284570000000    -0.219719   
Br34     Br     0.499230000000     0.131630000000     0.542940000000    -0.243672   
Br35     Br     0.625660000000     0.442050000000     0.232970000000    -0.226457   
Br36     Br     0.696920000000     0.273100000000     0.223930000000    -0.218456   
Br37     Br     0.699160000000     0.451600000000     0.516740000000    -0.231352   
Br38     Br     0.877590000000     0.188520000000     0.484890000000    -0.229475   
Br39     Br     0.449390000000     0.523560000000     0.477910000000    -0.229432   
Br40     Br     0.875380000000     0.532590000000     0.261190000000    -0.230656   
Br41     Br     0.630730000000     0.225220000000     0.784570000000    -0.219718   
Br42     Br     0.499230000000     0.131630000000     0.042940000000    -0.243672   
Br43     Br     0.625660000000     0.442050000000     0.732970000000    -0.226459   
Br44     Br     0.696920000000     0.273100000000     0.723940000000    -0.218472   
Br45     Br     0.699160000000     0.451600000000     0.016740000000    -0.231356   
Br46     Br     0.877590000000     0.188520000000     0.984890000000    -0.229472   
Br47     Br     0.449390000000     0.523560000000     0.977910000000    -0.22943    
Br48     Br     0.875380000000     0.532590000000     0.761190000000    -0.230654   
Br49     Br     0.630730000000     0.725220000000     0.284570000000    -0.219722   
Br50     Br     0.499230000000     0.631630000000     0.542940000000    -0.243673   
Br51     Br     0.625660000000     0.942050000000     0.232970000000    -0.226464   
Br52     Br     0.696920000000     0.773100000000     0.223930000000    -0.218431   
Br53     Br     0.699160000000     0.951600000000     0.516740000000    -0.231359   
Br54     Br     0.877590000000     0.688520000000     0.484890000000    -0.229475   
Br55     Br     0.449390000000     0.023550000000     0.477910000000    -0.22941    
Br56     Br     0.875380000000     0.032590000000     0.261190000000    -0.230647   
Br57     Br     0.630730000000     0.725220000000     0.784570000000    -0.21972    
Br58     Br     0.499230000000     0.631630000000     0.042940000000    -0.243673   
Br59     Br     0.625660000000     0.942050000000     0.732970000000    -0.226465   
Br60     Br     0.696920000000     0.773100000000     0.723940000000    -0.218447   
Br61     Br     0.699160000000     0.951600000000     0.016740000000    -0.231363   
Br62     Br     0.877590000000     0.688520000000     0.984890000000    -0.229472   
Br63     Br     0.449390000000     0.023550000000     0.977910000000    -0.229408   
Br64     Br     0.875380000000     0.032590000000     0.761190000000    -0.230645   
C1       C      0.384610000000     0.557550000000     0.177630000000     0.395823   
C2       C      0.385180000000     0.165630000000     0.568800000000     0.392898   
C3       C      0.385400000000     0.166620000000     0.178830000000     0.386541   
C4       C      0.386650000000     0.556530000000     0.566740000000     0.389213   
C5       C      0.946100000000     0.552590000000     0.563170000000     0.405158   
C6       C      0.944780000000     0.171900000000     0.184750000000     0.394435   
C7       C      0.942820000000     0.549950000000     0.186410000000     0.3988     
C8       C      0.950310000000     0.166720000000     0.568620000000     0.406795   
C9       C      0.192730000000     0.425610000000     0.307210000000     0.398101   
C10      C      0.195330000000     0.303940000000     0.431170000000     0.391966   
C11      C      0.196220000000     0.423110000000     0.431030000000     0.402613   
C12      C      0.194720000000     0.302930000000     0.309790000000     0.404883   
C13      C      0.136640000000     0.307700000000     0.314110000000     0.39503    
C14      C      0.137530000000     0.420340000000     0.427740000000     0.386907   
C15      C      0.134810000000     0.417590000000     0.316530000000     0.395082   
C16      C      0.130090000000     0.318610000000     0.417180000000     0.383301   
C17      C      0.087050000000     0.296060000000     0.261800000000    -0.0281366  
C18      C      0.991130000000     0.186930000000     0.241100000000    -0.0293488  
C19      C      0.964960000000     0.224070000000     0.193430000000    -0.0081626  
C20      C      0.966540000000     0.179220000000     0.236470000000    -0.00857015 
C21      C      0.036190000000     0.217990000000     0.226300000000    -0.0539773  
C22      C      0.042070000000     0.264860000000     0.276220000000    -0.0554993  
C23      C      0.017610000000     0.231360000000     0.242450000000     0.0629117  
C24      C      0.989600000000     0.230170000000     0.199460000000    -0.0295572  
C25      C      0.060650000000     0.251540000000     0.260010000000     0.0650944  
C26      C      0.088820000000     0.252450000000     0.302750000000    -0.0576809  
C27      C      0.057490000000     0.228060000000     0.235080000000    -0.0502143  
C28      C      0.113600000000     0.257950000000     0.308480000000     0.116709   
C29      C      0.111730000000     0.303510000000     0.265530000000    -0.0052735  
C30      C      0.020770000000     0.254810000000     0.267420000000    -0.0521493  
C31      C      0.991980000000     0.230930000000     0.547090000000    -0.0304559  
C32      C      0.083110000000     0.262690000000     0.431530000000    -0.029726   
C33      C      0.097610000000     0.327320000000     0.453280000000    -0.00823086 
C34      C      0.097300000000     0.283670000000     0.408500000000    -0.00845121 
C35      C      0.031080000000     0.270590000000     0.465910000000    -0.0516169  
C36      C      0.044180000000     0.223930000000     0.512810000000    -0.0507392  
C37      C      0.053620000000     0.265210000000     0.471690000000     0.0627849  
C38      C      0.083380000000     0.304580000000     0.474500000000    -0.0298575  
C39      C      0.021670000000     0.229300000000     0.507020000000     0.0658614  
C40      C      0.992170000000     0.189360000000     0.504270000000    -0.0591287  
C41      C      0.015160000000     0.252810000000     0.483390000000    -0.0558887  
C42      C      0.979310000000     0.165070000000     0.525800000000     0.120483   
C43      C      0.979040000000     0.209220000000     0.571070000000    -0.000682438
C44      C      0.060100000000     0.241680000000     0.495350000000    -0.0538371  
C45      C      0.084900000000     0.469500000000     0.307580000000    -0.0294823  
C46      C      0.986640000000     0.491350000000     0.202680000000    -0.0293128  
C47      C      0.962370000000     0.540890000000     0.239850000000    -0.00873065 
C48      C      0.962060000000     0.497090000000     0.195880000000    -0.00809187 
C49      C      0.017400000000     0.466040000000     0.270420000000    -0.0519581  
C50      C      0.053980000000     0.495350000000     0.240060000000    -0.0501999  
C51      C      0.014110000000     0.490240000000     0.246260000000     0.0634877  
C52      C      0.986940000000     0.533810000000     0.245390000000    -0.0289666  
C53      C      0.057270000000     0.471160000000     0.264220000000     0.0650698  
C54      C      0.084490000000     0.427660000000     0.264800000000    -0.0580665  
C55      C      0.038770000000     0.456500000000     0.279410000000    -0.0552428  
C56      C      0.109300000000     0.421050000000     0.268720000000     0.11746    
C57      C      0.109690000000     0.465190000000     0.313470000000    -0.00343883 
C58      C      0.032620000000     0.504890000000     0.231080000000    -0.0541764  
C59      C      0.239240000000     0.244540000000     0.294690000000    -0.0287248  
C60      C      0.336560000000     0.219940000000     0.189100000000    -0.0290745  
C61      C      0.360860000000     0.171370000000     0.227690000000    -0.0101645  
C62      C      0.361290000000     0.215260000000     0.183030000000    -0.00907373 
C63      C      0.306240000000     0.246460000000     0.256610000000    -0.0519768  
C64      C      0.269270000000     0.217540000000     0.226920000000    -0.0512249  
C65      C      0.309180000000     0.221920000000     0.232750000000     0.0630001  
C66      C      0.336140000000     0.178030000000     0.231930000000    -0.0283949  
C67      C      0.266330000000     0.242100000000     0.250800000000     0.0650425  
C68      C      0.239700000000     0.286280000000     0.251390000000    -0.0579238  
C69      C      0.285030000000     0.256540000000     0.265640000000    -0.0554252  
C70      C      0.215260000000     0.294440000000     0.257220000000     0.117281   
C71      C      0.214780000000     0.250660000000     0.301770000000    -0.00362024 
C72      C      0.290510000000     0.207450000000     0.217880000000    -0.0543445  
C73      C      0.241750000000     0.480290000000     0.446260000000    -0.0293142  
C74      C      0.338420000000     0.502620000000     0.554250000000    -0.0285522  
C75      C      0.362950000000     0.551860000000     0.516930000000    -0.0109769  
C76      C      0.363090000000     0.507380000000     0.560910000000    -0.00945599 
C77      C      0.292580000000     0.515780000000     0.524920000000    -0.0547002  
C78      C      0.287350000000     0.467840000000     0.475890000000    -0.0550193  
C79      C      0.311330000000     0.501470000000     0.510120000000     0.0635946  
C80      C      0.338290000000     0.545260000000     0.512110000000    -0.0275481  
C81      C      0.268570000000     0.482160000000     0.490640000000     0.0647679  
C82      C      0.241840000000     0.438190000000     0.489110000000    -0.0582561  
C83      C      0.271380000000     0.506120000000     0.515170000000    -0.0510895  
C84      C      0.217370000000     0.430430000000     0.483170000000     0.11786    
C85      C      0.217280000000     0.474540000000     0.438840000000    -0.00308214 
C86      C      0.308520000000     0.477510000000     0.485620000000    -0.0519182  
C87      C      0.335850000000     0.218970000000     0.557340000000    -0.0295343  
C88      C      0.240450000000     0.245590000000     0.446880000000    -0.0289031  
C89      C      0.216500000000     0.296030000000     0.483340000000    -0.00985616 
C90      C      0.216040000000     0.252100000000     0.439140000000    -0.0095177  
C91      C      0.286230000000     0.256340000000     0.477630000000    -0.0544357  
C92      C      0.290060000000     0.208030000000     0.526610000000    -0.055062   
C93      C      0.267000000000     0.242830000000     0.491850000000     0.0629047  
C94      C      0.240890000000     0.287880000000     0.489440000000    -0.0285528  
C95      C      0.309280000000     0.221560000000     0.512390000000     0.064401   
C96      C      0.335540000000     0.176680000000     0.515150000000    -0.0580359  
C97      C      0.307140000000     0.245720000000     0.487880000000    -0.0506866  
C98      C      0.360140000000     0.169000000000     0.520340000000     0.117234   
C99      C      0.360420000000     0.213630000000     0.564640000000    -0.00381593 
C100     C      0.269140000000     0.218640000000     0.516350000000    -0.0519467  
C101     C      0.992620000000     0.496660000000     0.548520000000    -0.0299332  
C102     C      0.088980000000     0.473750000000     0.439640000000    -0.0285107  
C103     C      0.114370000000     0.426340000000     0.478060000000    -0.0104979  
C104     C      0.113680000000     0.469340000000     0.432700000000    -0.00956537 
C105     C      0.059210000000     0.500170000000     0.508080000000    -0.0500076  
C106     C      0.022160000000     0.470040000000     0.479900000000    -0.0512012  
C107     C      0.062130000000     0.475620000000     0.484190000000     0.0633308  
C108     C      0.089630000000     0.432430000000     0.483080000000    -0.0279039  
C109     C      0.019240000000     0.494600000000     0.503800000000     0.0656986  
C110     C      0.992040000000     0.538080000000     0.505080000000    -0.0602374  
C111     C      0.037990000000     0.509660000000     0.517880000000    -0.0546912  
C112     C      0.967490000000     0.545390000000     0.511170000000     0.120168   
C113     C      0.968090000000     0.501870000000     0.556120000000    -0.00166188 
C114     C      0.043400000000     0.460540000000     0.470100000000    -0.0541893  
C115     C      0.334780000000     0.505590000000     0.186300000000    -0.0296705  
C116     C      0.236190000000     0.484360000000     0.290470000000    -0.0288025  
C117     C      0.211930000000     0.434670000000     0.253480000000    -0.00974788 
C118     C      0.211600000000     0.478660000000     0.297200000000    -0.00882644 
C119     C      0.267180000000     0.509270000000     0.222930000000    -0.0519837  
C120     C      0.303600000000     0.479790000000     0.253590000000    -0.0508115  
C121     C      0.263770000000     0.485110000000     0.247080000000     0.0636735  
C122     C      0.236510000000     0.441670000000     0.247930000000    -0.0281898  
C123     C      0.307010000000     0.503950000000     0.229450000000     0.0646827  
C124     C      0.334310000000     0.547320000000     0.229210000000    -0.0582946  
C125     C      0.288600000000     0.518710000000     0.214110000000    -0.0549529  
C126     C      0.359140000000     0.553840000000     0.225470000000     0.117743   
C127     C      0.359590000000     0.509830000000     0.180610000000    -0.00319317 
C128     C      0.282190000000     0.470380000000     0.262410000000    -0.0545912  
C129     C      0.384610000000     0.557550000000     0.677630000000     0.395823   
C130     C      0.385180000000     0.165630000000     0.068800000000     0.392898   
C131     C      0.385400000000     0.166620000000     0.678830000000     0.38654    
C132     C      0.386650000000     0.556530000000     0.066740000000     0.389033   
C133     C      0.946100000000     0.552590000000     0.063170000000     0.405156   
C134     C      0.944780000000     0.171900000000     0.684750000000     0.394618   
C135     C      0.942820000000     0.549950000000     0.686410000000     0.398799   
C136     C      0.950310000000     0.166720000000     0.068620000000     0.406793   
C137     C      0.192730000000     0.425610000000     0.807210000000     0.398101   
C138     C      0.195330000000     0.303940000000     0.931170000000     0.391966   
C139     C      0.196220000000     0.423110000000     0.931030000000     0.402614   
C140     C      0.194720000000     0.302930000000     0.809790000000     0.404885   
C141     C      0.136640000000     0.307700000000     0.814110000000     0.395031   
C142     C      0.137530000000     0.420340000000     0.927740000000     0.386907   
C143     C      0.134810000000     0.417590000000     0.816530000000     0.395083   
C144     C      0.130090000000     0.318610000000     0.917180000000     0.383301   
C145     C      0.087050000000     0.296060000000     0.761800000000    -0.0281366  
C146     C      0.991130000000     0.186930000000     0.741100000000    -0.0293288  
C147     C      0.964960000000     0.224070000000     0.693430000000    -0.00815746 
C148     C      0.966540000000     0.179220000000     0.736470000000    -0.00857276 
C149     C      0.036190000000     0.217990000000     0.726300000000    -0.0539775  
C150     C      0.042070000000     0.264860000000     0.776220000000    -0.055499   
C151     C      0.017610000000     0.231360000000     0.742450000000     0.0629138  
C152     C      0.989600000000     0.230170000000     0.699460000000    -0.0295466  
C153     C      0.060650000000     0.251540000000     0.760010000000     0.0650944  
C154     C      0.088820000000     0.252450000000     0.802750000000    -0.0576809  
C155     C      0.057490000000     0.228060000000     0.735080000000    -0.0502142  
C156     C      0.113600000000     0.257950000000     0.808480000000     0.116709   
C157     C      0.111730000000     0.303510000000     0.765530000000    -0.00527348 
C158     C      0.020770000000     0.254810000000     0.767420000000    -0.0521494  
C159     C      0.991980000000     0.230930000000     0.047090000000    -0.030456   
C160     C      0.083110000000     0.262690000000     0.931530000000    -0.0297261  
C161     C      0.097610000000     0.327320000000     0.953280000000    -0.00823078 
C162     C      0.097300000000     0.283670000000     0.908500000000    -0.00845115 
C163     C      0.031080000000     0.270590000000     0.965910000000    -0.0516165  
C164     C      0.044180000000     0.223930000000     0.012810000000    -0.0507441  
C165     C      0.053620000000     0.265210000000     0.971690000000     0.0627831  
C166     C      0.083380000000     0.304580000000     0.974500000000    -0.0298576  
C167     C      0.021670000000     0.229300000000     0.007020000000     0.0658591  
C168     C      0.992170000000     0.189360000000     0.004270000000    -0.0591361  
C169     C      0.015160000000     0.252810000000     0.983390000000    -0.055886   
C170     C      0.979310000000     0.165070000000     0.025800000000     0.120485   
C171     C      0.979040000000     0.209220000000     0.071070000000    -0.000682471
C172     C      0.060100000000     0.241680000000     0.995350000000    -0.0538295  
C173     C      0.084900000000     0.469500000000     0.807580000000    -0.0294831  
C174     C      0.986640000000     0.491350000000     0.702680000000    -0.0293199  
C175     C      0.962370000000     0.540890000000     0.739850000000    -0.00873077 
C176     C      0.962060000000     0.497090000000     0.695880000000    -0.00807545 
C177     C      0.017400000000     0.466040000000     0.770420000000    -0.0519585  
C178     C      0.053980000000     0.495350000000     0.740060000000    -0.050199   
C179     C      0.014110000000     0.490240000000     0.746260000000     0.0634878  
C180     C      0.986940000000     0.533810000000     0.745390000000    -0.0289674  
C181     C      0.057270000000     0.471160000000     0.764220000000     0.0650681  
C182     C      0.084490000000     0.427660000000     0.764800000000    -0.0581211  
C183     C      0.038770000000     0.456500000000     0.779410000000    -0.0552422  
C184     C      0.109300000000     0.421050000000     0.768720000000     0.117476   
C185     C      0.109690000000     0.465190000000     0.813470000000    -0.0034375  
C186     C      0.032620000000     0.504890000000     0.731080000000    -0.0541767  
C187     C      0.239240000000     0.244540000000     0.794690000000    -0.0287251  
C188     C      0.336560000000     0.219940000000     0.689110000000    -0.0289749  
C189     C      0.360860000000     0.171370000000     0.727690000000    -0.0101675  
C190     C      0.361290000000     0.215260000000     0.683030000000    -0.00911699 
C191     C      0.306240000000     0.246460000000     0.756610000000    -0.0519776  
C192     C      0.269270000000     0.217540000000     0.726920000000    -0.0512244  
C193     C      0.309180000000     0.221920000000     0.732750000000     0.0630013  
C194     C      0.336140000000     0.178030000000     0.731930000000    -0.0283933  
C195     C      0.266330000000     0.242100000000     0.750800000000     0.0650418  
C196     C      0.239700000000     0.286280000000     0.751390000000    -0.0579338  
C197     C      0.285030000000     0.256540000000     0.765640000000    -0.0554247  
C198     C      0.215260000000     0.294440000000     0.757220000000     0.117313   
C199     C      0.214780000000     0.250660000000     0.801770000000    -0.00361906 
C200     C      0.290510000000     0.207450000000     0.717880000000    -0.0543458  
C201     C      0.241750000000     0.480290000000     0.946260000000    -0.029314   
C202     C      0.338420000000     0.502620000000     0.054250000000    -0.0285488  
C203     C      0.362950000000     0.551860000000     0.016930000000    -0.0109854  
C204     C      0.363090000000     0.507380000000     0.060910000000    -0.00946691 
C205     C      0.292580000000     0.515780000000     0.024920000000    -0.0546973  
C206     C      0.287350000000     0.467840000000     0.975890000000    -0.0550223  
C207     C      0.311330000000     0.501470000000     0.010120000000     0.0635893  
C208     C      0.338290000000     0.545260000000     0.012110000000    -0.0275492  
C209     C      0.268570000000     0.482160000000     0.990640000000     0.0647729  
C210     C      0.241840000000     0.438190000000     0.989110000000    -0.0582531  
C211     C      0.271380000000     0.506120000000     0.015170000000    -0.0510952  
C212     C      0.217370000000     0.430430000000     0.983170000000     0.117861   
C213     C      0.217280000000     0.474540000000     0.938840000000    -0.00308213 
C214     C      0.308520000000     0.477510000000     0.985620000000    -0.0519128  
C215     C      0.335850000000     0.218970000000     0.057340000000    -0.0295083  
C216     C      0.240450000000     0.245590000000     0.946880000000    -0.028903   
C217     C      0.216500000000     0.296030000000     0.983340000000    -0.00985356 
C218     C      0.216040000000     0.252100000000     0.939140000000    -0.00951762 
C219     C      0.286230000000     0.256340000000     0.977630000000    -0.0544334  
C220     C      0.290060000000     0.208030000000     0.026610000000    -0.0550739  
C221     C      0.267000000000     0.242830000000     0.991850000000     0.0629001  
C222     C      0.240890000000     0.287880000000     0.989440000000    -0.0285505  
C223     C      0.309280000000     0.221560000000     0.012390000000     0.0644017  
C224     C      0.335540000000     0.176680000000     0.015150000000    -0.0580373  
C225     C      0.307140000000     0.245720000000     0.987880000000    -0.050686   
C226     C      0.360140000000     0.169000000000     0.020340000000     0.117232   
C227     C      0.360420000000     0.213630000000     0.064650000000    -0.00387823 
C228     C      0.269140000000     0.218640000000     0.016350000000    -0.0519238  
C229     C      0.992620000000     0.496660000000     0.048510000000    -0.0298337  
C230     C      0.088980000000     0.473750000000     0.939640000000    -0.0285105  
C231     C      0.114370000000     0.426340000000     0.978060000000    -0.010499   
C232     C      0.113680000000     0.469340000000     0.932700000000    -0.00956547 
C233     C      0.059210000000     0.500170000000     0.008080000000    -0.050013   
C234     C      0.022160000000     0.470040000000     0.979900000000    -0.0511964  
C235     C      0.062130000000     0.475620000000     0.984190000000     0.0633356  
C236     C      0.089630000000     0.432430000000     0.983080000000    -0.0279003  
C237     C      0.019240000000     0.494600000000     0.003800000000     0.0656942  
C238     C      0.992040000000     0.538080000000     0.005080000000    -0.0602396  
C239     C      0.037990000000     0.509660000000     0.017880000000    -0.0546893  
C240     C      0.967490000000     0.545390000000     0.011170000000     0.120164   
C241     C      0.968090000000     0.501870000000     0.056120000000    -0.00170541 
C242     C      0.043400000000     0.460540000000     0.970100000000    -0.054192   
C243     C      0.334780000000     0.505590000000     0.686300000000    -0.0296444  
C244     C      0.236190000000     0.484360000000     0.790470000000    -0.0288025  
C245     C      0.211930000000     0.434670000000     0.753480000000    -0.00974791 
C246     C      0.211600000000     0.478660000000     0.797200000000    -0.00882646 
C247     C      0.267180000000     0.509270000000     0.722930000000    -0.0519836  
C248     C      0.303600000000     0.479790000000     0.753590000000    -0.0508115  
C249     C      0.263770000000     0.485110000000     0.747080000000     0.0636734  
C250     C      0.236510000000     0.441670000000     0.747930000000    -0.0281898  
C251     C      0.307010000000     0.503950000000     0.729450000000     0.0646829  
C252     C      0.334310000000     0.547320000000     0.729210000000    -0.0582925  
C253     C      0.288600000000     0.518710000000     0.714110000000    -0.0549532  
C254     C      0.359140000000     0.553840000000     0.725470000000     0.117742   
C255     C      0.359590000000     0.509830000000     0.680600000000    -0.0032557  
C256     C      0.282190000000     0.470380000000     0.762410000000    -0.0545912  
C257     C      0.384610000000     0.057550000000     0.177630000000     0.395824   
C258     C      0.385180000000     0.665630000000     0.568800000000     0.392897   
C259     C      0.385400000000     0.666620000000     0.178830000000     0.38654    
C260     C      0.386650000000     0.056520000000     0.566740000000     0.389177   
C261     C      0.946100000000     0.052590000000     0.563170000000     0.40516    
C262     C      0.944780000000     0.671900000000     0.184750000000     0.394435   
C263     C      0.942820000000     0.049950000000     0.186410000000     0.398801   
C264     C      0.950310000000     0.666720000000     0.568620000000     0.406795   
C265     C      0.192730000000     0.925610000000     0.307210000000     0.398101   
C266     C      0.195330000000     0.803940000000     0.431170000000     0.391966   
C267     C      0.196220000000     0.923110000000     0.431030000000     0.402614   
C268     C      0.194720000000     0.802930000000     0.309790000000     0.404878   
C269     C      0.136640000000     0.807700000000     0.314110000000     0.39503    
C270     C      0.137530000000     0.920340000000     0.427740000000     0.386906   
C271     C      0.134810000000     0.917590000000     0.316530000000     0.395082   
C272     C      0.130090000000     0.818610000000     0.417180000000     0.383301   
C273     C      0.087050000000     0.796060000000     0.261800000000    -0.0281364  
C274     C      0.991130000000     0.686930000000     0.241100000000    -0.0293483  
C275     C      0.964960000000     0.724070000000     0.193430000000    -0.00816254 
C276     C      0.966540000000     0.679220000000     0.236470000000    -0.0085702  
C277     C      0.036190000000     0.717990000000     0.226300000000    -0.053981   
C278     C      0.042070000000     0.764860000000     0.276220000000    -0.0555073  
C279     C      0.017610000000     0.731360000000     0.242450000000     0.0629221  
C280     C      0.989600000000     0.730170000000     0.199460000000    -0.0295571  
C281     C      0.060650000000     0.751540000000     0.260010000000     0.0650972  
C282     C      0.088820000000     0.752450000000     0.302750000000    -0.0576807  
C283     C      0.057490000000     0.728060000000     0.235080000000    -0.050214   
C284     C      0.113600000000     0.757950000000     0.308480000000     0.116709   
C285     C      0.111730000000     0.803510000000     0.265530000000    -0.00527339 
C286     C      0.020770000000     0.754800000000     0.267420000000    -0.0521453  
C287     C      0.991980000000     0.730930000000     0.547090000000    -0.0304558  
C288     C      0.083110000000     0.762690000000     0.431530000000    -0.0297259  
C289     C      0.097610000000     0.827320000000     0.453280000000    -0.00823082 
C290     C      0.097300000000     0.783670000000     0.408500000000    -0.00845121 
C291     C      0.031080000000     0.770590000000     0.465910000000    -0.0516169  
C292     C      0.044180000000     0.723930000000     0.512810000000    -0.0507393  
C293     C      0.053620000000     0.765210000000     0.471690000000     0.0627849  
C294     C      0.083380000000     0.804580000000     0.474500000000    -0.0298574  
C295     C      0.021670000000     0.729300000000     0.507020000000     0.0658614  
C296     C      0.992170000000     0.689360000000     0.504270000000    -0.0591285  
C297     C      0.015160000000     0.752810000000     0.483390000000    -0.0558887  
C298     C      0.979310000000     0.665070000000     0.525800000000     0.120484   
C299     C      0.979040000000     0.709220000000     0.571070000000    -0.000682361
C300     C      0.060100000000     0.741680000000     0.495350000000    -0.0538373  
C301     C      0.084900000000     0.969500000000     0.307580000000    -0.0294818  
C302     C      0.986640000000     0.991350000000     0.202680000000    -0.0293389  
C303     C      0.962370000000     0.040890000000     0.239850000000    -0.00872771 
C304     C      0.962060000000     0.997090000000     0.195880000000    -0.0081028  
C305     C      0.017400000000     0.966040000000     0.270420000000    -0.0519344  
C306     C      0.053980000000     0.995350000000     0.240060000000    -0.0502817  
C307     C      0.014110000000     0.990240000000     0.246260000000     0.0634358  
C308     C      0.986940000000     0.033810000000     0.245390000000    -0.0289661  
C309     C      0.057270000000     0.971160000000     0.264220000000     0.0650988  
C310     C      0.084490000000     0.927660000000     0.264800000000    -0.0580661  
C311     C      0.038770000000     0.956500000000     0.279410000000    -0.0552669  
C312     C      0.109300000000     0.921050000000     0.268720000000     0.117461   
C313     C      0.109690000000     0.965190000000     0.313470000000    -0.00343872 
C314     C      0.032620000000     0.004890000000     0.231080000000    -0.0540948  
C315     C      0.239240000000     0.744540000000     0.294690000000    -0.0287218  
C316     C      0.336560000000     0.719940000000     0.189100000000    -0.0290742  
C317     C      0.360860000000     0.671370000000     0.227690000000    -0.0101651  
C318     C      0.361290000000     0.715260000000     0.183030000000    -0.00907375 
C319     C      0.306240000000     0.746460000000     0.256610000000    -0.0519824  
C320     C      0.269270000000     0.717540000000     0.226920000000    -0.0511914  
C321     C      0.309180000000     0.721920000000     0.232750000000     0.063007   
C322     C      0.336140000000     0.678030000000     0.231930000000    -0.0283942  
C323     C      0.266330000000     0.742100000000     0.250800000000     0.0650311  
C324     C      0.239700000000     0.786280000000     0.251390000000    -0.0578822  
C325     C      0.285030000000     0.756540000000     0.265640000000    -0.0554194  
C326     C      0.215260000000     0.794450000000     0.257220000000     0.11722    
C327     C      0.214780000000     0.750660000000     0.301770000000    -0.00362001 
C328     C      0.290510000000     0.707450000000     0.217880000000    -0.0543619  
C329     C      0.241750000000     0.980290000000     0.446260000000    -0.0293429  
C330     C      0.338420000000     0.002620000000     0.554250000000    -0.0285235  
C331     C      0.362950000000     0.051860000000     0.516930000000    -0.0109636  
C332     C      0.363090000000     0.007380000000     0.560910000000    -0.00945635 
C333     C      0.292580000000     0.015780000000     0.524920000000    -0.0547171  
C334     C      0.287350000000     0.967840000000     0.475890000000    -0.0550121  
C335     C      0.311330000000     0.001470000000     0.510120000000     0.0636238  
C336     C      0.338290000000     0.045260000000     0.512110000000    -0.0275503  
C337     C      0.268570000000     0.982160000000     0.490640000000     0.0647347  
C338     C      0.241840000000     0.938190000000     0.489110000000    -0.0582571  
C339     C      0.271380000000     0.006120000000     0.515170000000    -0.0510516  
C340     C      0.217370000000     0.930430000000     0.483170000000     0.117861   
C341     C      0.217280000000     0.974540000000     0.438840000000    -0.00307353 
C342     C      0.308520000000     0.977510000000     0.485620000000    -0.0519308  
C343     C      0.335850000000     0.718970000000     0.557340000000    -0.0295338  
C344     C      0.240450000000     0.745590000000     0.446880000000    -0.0289049  
C345     C      0.216500000000     0.796030000000     0.483340000000    -0.0098567  
C346     C      0.216040000000     0.752100000000     0.439140000000    -0.00951714 
C347     C      0.286230000000     0.756340000000     0.477630000000    -0.054402   
C348     C      0.290060000000     0.708030000000     0.526610000000    -0.0550767  
C349     C      0.267000000000     0.742820000000     0.491850000000     0.0628855  
C350     C      0.240890000000     0.787880000000     0.489440000000    -0.0285513  
C351     C      0.309280000000     0.721560000000     0.512390000000     0.064417   
C352     C      0.335540000000     0.676680000000     0.515150000000    -0.0580357  
C353     C      0.307140000000     0.745720000000     0.487880000000    -0.0507282  
C354     C      0.360140000000     0.669000000000     0.520340000000     0.117234   
C355     C      0.360420000000     0.713630000000     0.564640000000    -0.00381611 
C356     C      0.269140000000     0.718640000000     0.516350000000    -0.0519292  
C357     C      0.992620000000     0.996660000000     0.548520000000    -0.0300137  
C358     C      0.088980000000     0.973750000000     0.439640000000    -0.0285112  
C359     C      0.114370000000     0.926340000000     0.478060000000    -0.0104977  
C360     C      0.113680000000     0.969340000000     0.432700000000    -0.00956515 
C361     C      0.059210000000     0.000170000000     0.508080000000    -0.0499892  
C362     C      0.022160000000     0.970040000000     0.479900000000    -0.0511917  
C363     C      0.062130000000     0.975620000000     0.484190000000     0.0633113  
C364     C      0.089630000000     0.932430000000     0.483080000000    -0.0279045  
C365     C      0.019240000000     0.994600000000     0.503800000000     0.0656553  
C366     C      0.992040000000     0.038080000000     0.505080000000    -0.0602325  
C367     C      0.037990000000     0.009660000000     0.517880000000    -0.0546617  
C368     C      0.967490000000     0.045390000000     0.511170000000     0.12015    
C369     C      0.968090000000     0.001870000000     0.556120000000    -0.00157588 
C370     C      0.043400000000     0.960540000000     0.470100000000    -0.0541912  
C371     C      0.334780000000     0.005590000000     0.186300000000    -0.0296483  
C372     C      0.236190000000     0.984360000000     0.290470000000    -0.0287917  
C373     C      0.211930000000     0.934670000000     0.253480000000    -0.0097481  
C374     C      0.211600000000     0.978660000000     0.297200000000    -0.00883143 
C375     C      0.267180000000     0.009270000000     0.222930000000    -0.0519412  
C376     C      0.303600000000     0.979790000000     0.253590000000    -0.0508551  
C377     C      0.263770000000     0.985110000000     0.247080000000     0.063635   
C378     C      0.236510000000     0.941670000000     0.247930000000    -0.0281904  
C379     C      0.307010000000     0.003950000000     0.229450000000     0.0647238  
C380     C      0.334310000000     0.047320000000     0.229210000000    -0.0582593  
C381     C      0.288600000000     0.018710000000     0.214110000000    -0.0549753  
C382     C      0.359140000000     0.053840000000     0.225470000000     0.117738   
C383     C      0.359590000000     0.009830000000     0.180610000000    -0.00317428 
C384     C      0.282190000000     0.970380000000     0.262410000000    -0.0545686  
C385     C      0.384610000000     0.057550000000     0.677630000000     0.395825   
C386     C      0.385180000000     0.665630000000     0.068800000000     0.392896   
C387     C      0.385400000000     0.666620000000     0.678830000000     0.38654    
C388     C      0.386650000000     0.056520000000     0.066740000000     0.388997   
C389     C      0.946100000000     0.052590000000     0.063170000000     0.405158   
C390     C      0.944780000000     0.671900000000     0.684750000000     0.394618   
C391     C      0.942820000000     0.049950000000     0.686410000000     0.3988     
C392     C      0.950310000000     0.666720000000     0.068620000000     0.406793   
C393     C      0.192730000000     0.925610000000     0.807210000000     0.398101   
C394     C      0.195330000000     0.803940000000     0.931170000000     0.391966   
C395     C      0.196220000000     0.923110000000     0.931030000000     0.402614   
C396     C      0.194720000000     0.802930000000     0.809790000000     0.40488    
C397     C      0.136640000000     0.807700000000     0.814110000000     0.395031   
C398     C      0.137530000000     0.920340000000     0.927740000000     0.386906   
C399     C      0.134810000000     0.917590000000     0.816530000000     0.395083   
C400     C      0.130090000000     0.818610000000     0.917180000000     0.383302   
C401     C      0.087050000000     0.796060000000     0.761800000000    -0.0281365  
C402     C      0.991130000000     0.686930000000     0.741100000000    -0.0293283  
C403     C      0.964960000000     0.724070000000     0.693430000000    -0.0081574  
C404     C      0.966540000000     0.679220000000     0.736470000000    -0.0085728  
C405     C      0.036190000000     0.717990000000     0.726300000000    -0.0539812  
C406     C      0.042070000000     0.764860000000     0.776220000000    -0.0555071  
C407     C      0.017610000000     0.731360000000     0.742450000000     0.0629242  
C408     C      0.989600000000     0.730170000000     0.699460000000    -0.0295465  
C409     C      0.060650000000     0.751540000000     0.760010000000     0.0650971  
C410     C      0.088820000000     0.752450000000     0.802750000000    -0.0576808  
C411     C      0.057490000000     0.728060000000     0.735080000000    -0.0502138  
C412     C      0.113600000000     0.757950000000     0.808480000000     0.116709   
C413     C      0.111730000000     0.803510000000     0.765530000000    -0.00527337 
C414     C      0.020770000000     0.754800000000     0.767420000000    -0.0521453  
C415     C      0.991980000000     0.730930000000     0.047090000000    -0.0304559  
C416     C      0.083110000000     0.762690000000     0.931530000000    -0.0297259  
C417     C      0.097610000000     0.827320000000     0.953280000000    -0.00823073 
C418     C      0.097300000000     0.783670000000     0.908500000000    -0.00845114 
C419     C      0.031080000000     0.770590000000     0.965910000000    -0.0516166  
C420     C      0.044180000000     0.723930000000     0.012810000000    -0.0507442  
C421     C      0.053620000000     0.765210000000     0.971690000000     0.0627831  
C422     C      0.083380000000     0.804580000000     0.974500000000    -0.0298575  
C423     C      0.021670000000     0.729300000000     0.007020000000     0.065859   
C424     C      0.992170000000     0.689360000000     0.004270000000    -0.059136   
C425     C      0.015160000000     0.752810000000     0.983390000000    -0.055886   
C426     C      0.979310000000     0.665070000000     0.025800000000     0.120485   
C427     C      0.979040000000     0.709220000000     0.071070000000    -0.000682393
C428     C      0.060100000000     0.741680000000     0.995350000000    -0.0538296  
C429     C      0.084900000000     0.969500000000     0.807580000000    -0.0294827  
C430     C      0.986640000000     0.991350000000     0.702680000000    -0.0293459  
C431     C      0.962370000000     0.040890000000     0.739850000000    -0.00872783 
C432     C      0.962060000000     0.997090000000     0.695880000000    -0.00808638 
C433     C      0.017400000000     0.966040000000     0.770420000000    -0.0519347  
C434     C      0.053980000000     0.995350000000     0.740060000000    -0.0502808  
C435     C      0.014110000000     0.990240000000     0.746260000000     0.0634359  
C436     C      0.986940000000     0.033810000000     0.745390000000    -0.0289668  
C437     C      0.057270000000     0.971160000000     0.764220000000     0.065097   
C438     C      0.084490000000     0.927660000000     0.764800000000    -0.0581207  
C439     C      0.038770000000     0.956500000000     0.779410000000    -0.0552663  
C440     C      0.109300000000     0.921050000000     0.768720000000     0.117477   
C441     C      0.109690000000     0.965190000000     0.813470000000    -0.00343738 
C442     C      0.032620000000     0.004890000000     0.731080000000    -0.054095   
C443     C      0.239240000000     0.744540000000     0.794690000000    -0.0287221  
C444     C      0.336560000000     0.719940000000     0.689110000000    -0.0289746  
C445     C      0.360860000000     0.671370000000     0.727690000000    -0.0101681  
C446     C      0.361290000000     0.715260000000     0.683030000000    -0.00911701 
C447     C      0.306240000000     0.746460000000     0.756610000000    -0.0519832  
C448     C      0.269270000000     0.717540000000     0.726920000000    -0.0511908  
C449     C      0.309180000000     0.721920000000     0.732750000000     0.0630083  
C450     C      0.336140000000     0.678030000000     0.731930000000    -0.0283926  
C451     C      0.266330000000     0.742100000000     0.750800000000     0.0650304  
C452     C      0.239700000000     0.786280000000     0.751390000000    -0.0578922  
C453     C      0.285030000000     0.756540000000     0.765640000000    -0.0554188  
C454     C      0.215260000000     0.794450000000     0.757220000000     0.117251   
C455     C      0.214780000000     0.750660000000     0.801770000000    -0.00361883 
C456     C      0.290510000000     0.707450000000     0.717880000000    -0.0543632  
C457     C      0.241750000000     0.980290000000     0.946260000000    -0.0293427  
C458     C      0.338420000000     0.002620000000     0.054250000000    -0.0285201  
C459     C      0.362950000000     0.051860000000     0.016930000000    -0.0109721  
C460     C      0.363090000000     0.007380000000     0.060910000000    -0.00946727 
C461     C      0.292580000000     0.015780000000     0.024920000000    -0.0547142  
C462     C      0.287350000000     0.967840000000     0.975890000000    -0.0550151  
C463     C      0.311330000000     0.001470000000     0.010120000000     0.0636185  
C464     C      0.338290000000     0.045260000000     0.012110000000    -0.0275514  
C465     C      0.268570000000     0.982160000000     0.990640000000     0.0647397  
C466     C      0.241840000000     0.938190000000     0.989110000000    -0.0582541  
C467     C      0.271380000000     0.006120000000     0.015170000000    -0.0510572  
C468     C      0.217370000000     0.930430000000     0.983170000000     0.117862   
C469     C      0.217280000000     0.974540000000     0.938840000000    -0.00307353 
C470     C      0.308520000000     0.977510000000     0.985620000000    -0.0519253  
C471     C      0.335850000000     0.718970000000     0.057340000000    -0.0295078  
C472     C      0.240450000000     0.745590000000     0.946880000000    -0.0289048  
C473     C      0.216500000000     0.796030000000     0.983340000000    -0.00985409 
C474     C      0.216040000000     0.752100000000     0.939140000000    -0.00951705 
C475     C      0.286230000000     0.756340000000     0.977630000000    -0.0543998  
C476     C      0.290060000000     0.708030000000     0.026610000000    -0.0550885  
C477     C      0.267000000000     0.742820000000     0.991850000000     0.0628809  
C478     C      0.240890000000     0.787880000000     0.989440000000    -0.028549   
C479     C      0.309280000000     0.721560000000     0.012390000000     0.0644177  
C480     C      0.335540000000     0.676680000000     0.015150000000    -0.0580371  
C481     C      0.307140000000     0.745720000000     0.987880000000    -0.0507275  
C482     C      0.360140000000     0.669000000000     0.020340000000     0.117232   
C483     C      0.360420000000     0.713630000000     0.064650000000    -0.00387841 
C484     C      0.269140000000     0.718640000000     0.016350000000    -0.0519063  
C485     C      0.992620000000     0.996660000000     0.048510000000    -0.0299142  
C486     C      0.088980000000     0.973750000000     0.939640000000    -0.028511   
C487     C      0.114370000000     0.926340000000     0.978060000000    -0.0104988  
C488     C      0.113680000000     0.969340000000     0.932700000000    -0.00956525 
C489     C      0.059210000000     0.000170000000     0.008080000000    -0.0499947  
C490     C      0.022160000000     0.970040000000     0.979900000000    -0.0511869  
C491     C      0.062130000000     0.975620000000     0.984190000000     0.0633161  
C492     C      0.089630000000     0.932430000000     0.983080000000    -0.0279008  
C493     C      0.019240000000     0.994600000000     0.003800000000     0.0656509  
C494     C      0.992040000000     0.038080000000     0.005080000000    -0.0602347  
C495     C      0.037990000000     0.009660000000     0.017880000000    -0.0546598  
C496     C      0.967490000000     0.045390000000     0.011170000000     0.120146   
C497     C      0.968090000000     0.001870000000     0.056120000000    -0.00161942 
C498     C      0.043400000000     0.960540000000     0.970100000000    -0.054194   
C499     C      0.334780000000     0.005590000000     0.686300000000    -0.0296221  
C500     C      0.236190000000     0.984360000000     0.790470000000    -0.0287917  
C501     C      0.211930000000     0.934670000000     0.753480000000    -0.00974814 
C502     C      0.211600000000     0.978660000000     0.797200000000    -0.00883144 
C503     C      0.267180000000     0.009270000000     0.722930000000    -0.0519411  
C504     C      0.303600000000     0.979790000000     0.753590000000    -0.0508551  
C505     C      0.263770000000     0.985110000000     0.747080000000     0.063635   
C506     C      0.236510000000     0.941670000000     0.747930000000    -0.0281904  
C507     C      0.307010000000     0.003950000000     0.729450000000     0.064724   
C508     C      0.334310000000     0.047320000000     0.729210000000    -0.0582572  
C509     C      0.288600000000     0.018710000000     0.714110000000    -0.0549755  
C510     C      0.359140000000     0.053840000000     0.725470000000     0.117737   
C511     C      0.359590000000     0.009830000000     0.680600000000    -0.00323682 
C512     C      0.282190000000     0.970380000000     0.762410000000    -0.0545685  
C513     C      0.884610000000     0.557550000000     0.177630000000     0.395822   
C514     C      0.885180000000     0.165630000000     0.568800000000     0.392898   
C515     C      0.885400000000     0.166620000000     0.178830000000     0.386421   
C516     C      0.886650000000     0.556530000000     0.566740000000     0.389327   
C517     C      0.446100000000     0.552590000000     0.563170000000     0.405156   
C518     C      0.444780000000     0.171900000000     0.184750000000     0.394435   
C519     C      0.442820000000     0.549950000000     0.186410000000     0.398798   
C520     C      0.450310000000     0.166720000000     0.568620000000     0.406795   
C521     C      0.692730000000     0.425610000000     0.307210000000     0.398163   
C522     C      0.695330000000     0.303940000000     0.431170000000     0.391966   
C523     C      0.696220000000     0.423110000000     0.431030000000     0.402611   
C524     C      0.694720000000     0.302930000000     0.309790000000     0.404883   
C525     C      0.636640000000     0.307700000000     0.314110000000     0.39503    
C526     C      0.637530000000     0.420340000000     0.427740000000     0.386905   
C527     C      0.634810000000     0.417590000000     0.316530000000     0.395078   
C528     C      0.630090000000     0.318610000000     0.417180000000     0.383302   
C529     C      0.587050000000     0.296060000000     0.261800000000    -0.0281294  
C530     C      0.491130000000     0.186930000000     0.241100000000    -0.0294019  
C531     C      0.464960000000     0.224070000000     0.193430000000    -0.00816283 
C532     C      0.466540000000     0.179220000000     0.236470000000    -0.00855635 
C533     C      0.536190000000     0.217990000000     0.226300000000    -0.0539747  
C534     C      0.542080000000     0.264860000000     0.276220000000    -0.0555521  
C535     C      0.517610000000     0.231360000000     0.242450000000     0.0629499  
C536     C      0.489600000000     0.230170000000     0.199460000000    -0.0295587  
C537     C      0.560650000000     0.251540000000     0.260010000000     0.0651441  
C538     C      0.588820000000     0.252450000000     0.302750000000    -0.0576793  
C539     C      0.557490000000     0.228060000000     0.235080000000    -0.0502293  
C540     C      0.613600000000     0.257950000000     0.308480000000     0.116708   
C541     C      0.611730000000     0.303510000000     0.265530000000    -0.00530553 
C542     C      0.520770000000     0.254810000000     0.267420000000    -0.0521531  
C543     C      0.491980000000     0.230930000000     0.547090000000    -0.0305442  
C544     C      0.583110000000     0.262690000000     0.431530000000    -0.029726   
C545     C      0.597610000000     0.327320000000     0.453280000000    -0.00823084 
C546     C      0.597300000000     0.283670000000     0.408500000000    -0.00845118 
C547     C      0.531080000000     0.270590000000     0.465910000000    -0.0516426  
C548     C      0.544180000000     0.223930000000     0.512810000000    -0.0507244  
C549     C      0.553620000000     0.265210000000     0.471690000000     0.0627987  
C550     C      0.583380000000     0.304580000000     0.474500000000    -0.0298575  
C551     C      0.521670000000     0.229300000000     0.507020000000     0.0658414  
C552     C      0.492170000000     0.189360000000     0.504270000000    -0.0592152  
C553     C      0.515160000000     0.252810000000     0.483390000000    -0.0558165  
C554     C      0.479310000000     0.165070000000     0.525800000000     0.120505   
C555     C      0.479040000000     0.209220000000     0.571070000000    -0.000656854
C556     C      0.560100000000     0.241680000000     0.495350000000    -0.0538462  
C557     C      0.584890000000     0.469500000000     0.307580000000    -0.029529   
C558     C      0.486640000000     0.491350000000     0.202680000000    -0.0293117  
C559     C      0.462370000000     0.540890000000     0.239850000000    -0.0087319  
C560     C      0.462060000000     0.497090000000     0.195880000000    -0.00809303 
C561     C      0.517400000000     0.466040000000     0.270420000000    -0.0519653  
C562     C      0.553980000000     0.495350000000     0.240060000000    -0.0501797  
C563     C      0.514110000000     0.490240000000     0.246260000000     0.0635342  
C564     C      0.486940000000     0.533810000000     0.245390000000    -0.0289655  
C565     C      0.557260000000     0.471160000000     0.264220000000     0.0650438  
C566     C      0.584480000000     0.427660000000     0.264800000000    -0.05809    
C567     C      0.538770000000     0.456500000000     0.279410000000    -0.055246   
C568     C      0.609300000000     0.421050000000     0.268720000000     0.117442   
C569     C      0.609690000000     0.465190000000     0.313470000000    -0.00343707 
C570     C      0.532620000000     0.504890000000     0.231080000000    -0.0541922  
C571     C      0.739240000000     0.244540000000     0.294690000000    -0.0287249  
C572     C      0.836560000000     0.219940000000     0.189100000000    -0.0290694  
C573     C      0.860860000000     0.171370000000     0.227690000000    -0.0101656  
C574     C      0.861290000000     0.215260000000     0.183030000000    -0.00907674 
C575     C      0.806240000000     0.246460000000     0.256610000000    -0.0519769  
C576     C      0.769270000000     0.217540000000     0.226920000000    -0.0512252  
C577     C      0.809180000000     0.221920000000     0.232750000000     0.0629998  
C578     C      0.836140000000     0.178030000000     0.231930000000    -0.0283905  
C579     C      0.766330000000     0.242100000000     0.250800000000     0.0650423  
C580     C      0.739700000000     0.286280000000     0.251390000000    -0.0579239  
C581     C      0.785030000000     0.256540000000     0.265640000000    -0.0554254  
C582     C      0.715260000000     0.294440000000     0.257220000000     0.117281   
C583     C      0.714780000000     0.250660000000     0.301770000000    -0.00362028 
C584     C      0.790510000000     0.207450000000     0.217880000000    -0.0543447  
C585     C      0.741750000000     0.480290000000     0.446260000000    -0.0293141  
C586     C      0.838420000000     0.502620000000     0.554250000000    -0.028554   
C587     C      0.862950000000     0.551860000000     0.516930000000    -0.0109767  
C588     C      0.863090000000     0.507380000000     0.560910000000    -0.00945515 
C589     C      0.792580000000     0.515780000000     0.524920000000    -0.054687   
C590     C      0.787350000000     0.467840000000     0.475890000000    -0.0550123  
C591     C      0.811340000000     0.501470000000     0.510120000000     0.0636203  
C592     C      0.838290000000     0.545260000000     0.512110000000    -0.0275496  
C593     C      0.768570000000     0.482160000000     0.490640000000     0.0647669  
C594     C      0.741840000000     0.438190000000     0.489110000000    -0.0582562  
C595     C      0.771380000000     0.506120000000     0.515170000000    -0.0510928  
C596     C      0.717370000000     0.430430000000     0.483170000000     0.11786    
C597     C      0.717280000000     0.474540000000     0.438840000000    -0.00308242 
C598     C      0.808520000000     0.477510000000     0.485620000000    -0.0519312  
C599     C      0.835850000000     0.218970000000     0.557340000000    -0.0295343  
C600     C      0.740450000000     0.245590000000     0.446880000000    -0.0289033  
C601     C      0.716500000000     0.296030000000     0.483340000000    -0.00985619 
C602     C      0.716040000000     0.252100000000     0.439140000000    -0.00951776 
C603     C      0.786230000000     0.256340000000     0.477630000000    -0.0544358  
C604     C      0.790060000000     0.208030000000     0.526610000000    -0.0550623  
C605     C      0.767000000000     0.242830000000     0.491850000000     0.0629045  
C606     C      0.740890000000     0.287880000000     0.489440000000    -0.0285529  
C607     C      0.809280000000     0.221560000000     0.512390000000     0.0644008  
C608     C      0.835540000000     0.176680000000     0.515150000000    -0.0580359  
C609     C      0.807140000000     0.245720000000     0.487880000000    -0.0506868  
C610     C      0.860140000000     0.169000000000     0.520340000000     0.117234   
C611     C      0.860420000000     0.213630000000     0.564640000000    -0.00381614 
C612     C      0.769140000000     0.218640000000     0.516350000000    -0.0519469  
C613     C      0.492620000000     0.496660000000     0.548520000000    -0.0299886  
C614     C      0.588980000000     0.473750000000     0.439640000000    -0.028512   
C615     C      0.614370000000     0.426340000000     0.478060000000    -0.0104668  
C616     C      0.613680000000     0.469340000000     0.432700000000    -0.00956392 
C617     C      0.559210000000     0.500170000000     0.508080000000    -0.0499985  
C618     C      0.522160000000     0.470040000000     0.479900000000    -0.0512094  
C619     C      0.562130000000     0.475620000000     0.484190000000     0.0633273  
C620     C      0.589630000000     0.432430000000     0.483080000000    -0.027911   
C621     C      0.519240000000     0.494600000000     0.503800000000     0.0657387  
C622     C      0.492040000000     0.538080000000     0.505080000000    -0.0602921  
C623     C      0.537990000000     0.509660000000     0.517880000000    -0.0547012  
C624     C      0.467490000000     0.545390000000     0.511170000000     0.120181   
C625     C      0.468090000000     0.501870000000     0.556120000000    -0.00164735 
C626     C      0.543400000000     0.460540000000     0.470100000000    -0.05418    
C627     C      0.834780000000     0.505590000000     0.186300000000    -0.0296696  
C628     C      0.736190000000     0.484360000000     0.290470000000    -0.0288028  
C629     C      0.711930000000     0.434670000000     0.253480000000    -0.00974637 
C630     C      0.711600000000     0.478660000000     0.297200000000    -0.00882113 
C631     C      0.767180000000     0.509270000000     0.222930000000    -0.0519842  
C632     C      0.803600000000     0.479790000000     0.253590000000    -0.0508114  
C633     C      0.763770000000     0.485110000000     0.247080000000     0.0636733  
C634     C      0.736510000000     0.441670000000     0.247930000000    -0.0281898  
C635     C      0.807010000000     0.503950000000     0.229450000000     0.064682   
C636     C      0.834310000000     0.547320000000     0.229210000000    -0.0583324  
C637     C      0.788600000000     0.518710000000     0.214110000000    -0.0549528  
C638     C      0.859130000000     0.553840000000     0.225470000000     0.117697   
C639     C      0.859590000000     0.509830000000     0.180610000000    -0.00319819 
C640     C      0.782190000000     0.470380000000     0.262410000000    -0.0545915  
C641     C      0.884610000000     0.557550000000     0.677630000000     0.395823   
C642     C      0.885180000000     0.165630000000     0.068800000000     0.392898   
C643     C      0.885400000000     0.166620000000     0.678830000000     0.38642    
C644     C      0.886650000000     0.556530000000     0.066740000000     0.389147   
C645     C      0.446100000000     0.552590000000     0.063170000000     0.405154   
C646     C      0.444780000000     0.171900000000     0.684750000000     0.394617   
C647     C      0.442820000000     0.549950000000     0.686410000000     0.398798   
C648     C      0.450310000000     0.166720000000     0.068620000000     0.406793   
C649     C      0.692730000000     0.425610000000     0.807210000000     0.398163   
C650     C      0.695330000000     0.303940000000     0.931170000000     0.391967   
C651     C      0.696220000000     0.423110000000     0.931030000000     0.402611   
C652     C      0.694720000000     0.302930000000     0.809790000000     0.404885   
C653     C      0.636640000000     0.307700000000     0.814110000000     0.395031   
C654     C      0.637530000000     0.420340000000     0.927740000000     0.386905   
C655     C      0.634810000000     0.417590000000     0.816530000000     0.395078   
C656     C      0.630090000000     0.318610000000     0.917180000000     0.383302   
C657     C      0.587050000000     0.296060000000     0.761800000000    -0.0281294  
C658     C      0.491130000000     0.186930000000     0.741100000000    -0.0293819  
C659     C      0.464960000000     0.224070000000     0.693430000000    -0.0081577  
C660     C      0.466540000000     0.179220000000     0.736470000000    -0.00855896 
C661     C      0.536190000000     0.217990000000     0.726300000000    -0.0539749  
C662     C      0.542080000000     0.264860000000     0.776220000000    -0.0555518  
C663     C      0.517610000000     0.231360000000     0.742450000000     0.062952   
C664     C      0.489600000000     0.230170000000     0.699460000000    -0.029548   
C665     C      0.560650000000     0.251540000000     0.760010000000     0.065144   
C666     C      0.588820000000     0.252450000000     0.802750000000    -0.0576793  
C667     C      0.557490000000     0.228060000000     0.735080000000    -0.0502291  
C668     C      0.613600000000     0.257950000000     0.808480000000     0.116708   
C669     C      0.611730000000     0.303510000000     0.765530000000    -0.00530551 
C670     C      0.520770000000     0.254810000000     0.767420000000    -0.0521532  
C671     C      0.491980000000     0.230930000000     0.047090000000    -0.0305443  
C672     C      0.583110000000     0.262690000000     0.931530000000    -0.0297261  
C673     C      0.597610000000     0.327320000000     0.953280000000    -0.00823076 
C674     C      0.597300000000     0.283670000000     0.908500000000    -0.00845112 
C675     C      0.531080000000     0.270590000000     0.965910000000    -0.0516423  
C676     C      0.544180000000     0.223930000000     0.012810000000    -0.0507292  
C677     C      0.553620000000     0.265210000000     0.971690000000     0.0627968  
C678     C      0.583380000000     0.304580000000     0.974500000000    -0.0298576  
C679     C      0.521670000000     0.229300000000     0.007020000000     0.0658391  
C680     C      0.492170000000     0.189360000000     0.004270000000    -0.0592226  
C681     C      0.515160000000     0.252810000000     0.983390000000    -0.0558138  
C682     C      0.479310000000     0.165070000000     0.025800000000     0.120506   
C683     C      0.479040000000     0.209220000000     0.071070000000    -0.000656887
C684     C      0.560100000000     0.241680000000     0.995350000000    -0.0538385  
C685     C      0.584890000000     0.469500000000     0.807580000000    -0.0295299  
C686     C      0.486640000000     0.491350000000     0.702680000000    -0.0293188  
C687     C      0.462370000000     0.540890000000     0.739850000000    -0.00873201 
C688     C      0.462060000000     0.497090000000     0.695880000000    -0.00807661 
C689     C      0.517400000000     0.466040000000     0.770420000000    -0.0519656  
C690     C      0.553980000000     0.495350000000     0.740060000000    -0.0501788  
C691     C      0.514110000000     0.490240000000     0.746260000000     0.0635344  
C692     C      0.486940000000     0.533810000000     0.745390000000    -0.0289662  
C693     C      0.557260000000     0.471160000000     0.764220000000     0.0650421  
C694     C      0.584480000000     0.427660000000     0.764800000000    -0.0581447  
C695     C      0.538770000000     0.456500000000     0.779410000000    -0.0552454  
C696     C      0.609300000000     0.421050000000     0.768720000000     0.117458   
C697     C      0.609690000000     0.465190000000     0.813470000000    -0.00343573 
C698     C      0.532620000000     0.504890000000     0.731080000000    -0.0541924  
C699     C      0.739240000000     0.244540000000     0.794690000000    -0.0287252  
C700     C      0.836560000000     0.219940000000     0.689110000000    -0.0289698  
C701     C      0.860860000000     0.171370000000     0.727690000000    -0.0101686  
C702     C      0.861290000000     0.215260000000     0.683030000000    -0.00912    
C703     C      0.806240000000     0.246460000000     0.756610000000    -0.0519777  
C704     C      0.769270000000     0.217540000000     0.726920000000    -0.0512247  
C705     C      0.809180000000     0.221920000000     0.732750000000     0.0630011  
C706     C      0.836140000000     0.178030000000     0.731930000000    -0.0283889  
C707     C      0.766330000000     0.242100000000     0.750800000000     0.0650416  
C708     C      0.739700000000     0.286280000000     0.751390000000    -0.0579339  
C709     C      0.785030000000     0.256540000000     0.765640000000    -0.0554248  
C710     C      0.715260000000     0.294440000000     0.757220000000     0.117313   
C711     C      0.714780000000     0.250660000000     0.801770000000    -0.0036191  
C712     C      0.790510000000     0.207450000000     0.717880000000    -0.0543461  
C713     C      0.741750000000     0.480290000000     0.946260000000    -0.0293139  
C714     C      0.838420000000     0.502620000000     0.054250000000    -0.0285506  
C715     C      0.862950000000     0.551860000000     0.016930000000    -0.0109852  
C716     C      0.863090000000     0.507380000000     0.060910000000    -0.00946607 
C717     C      0.792580000000     0.515780000000     0.024920000000    -0.0546841  
C718     C      0.787350000000     0.467840000000     0.975890000000    -0.0550153  
C719     C      0.811340000000     0.501470000000     0.010120000000     0.063615   
C720     C      0.838290000000     0.545260000000     0.012110000000    -0.0275507  
C721     C      0.768570000000     0.482160000000     0.990640000000     0.0647719  
C722     C      0.741840000000     0.438190000000     0.989110000000    -0.0582532  
C723     C      0.771380000000     0.506120000000     0.015170000000    -0.0510985  
C724     C      0.717370000000     0.430430000000     0.983170000000     0.117861   
C725     C      0.717280000000     0.474540000000     0.938840000000    -0.00308241 
C726     C      0.808520000000     0.477510000000     0.985620000000    -0.0519257  
C727     C      0.835850000000     0.218970000000     0.057340000000    -0.0295083  
C728     C      0.740450000000     0.245590000000     0.946880000000    -0.0289031  
C729     C      0.716500000000     0.296030000000     0.983340000000    -0.00985359 
C730     C      0.716040000000     0.252100000000     0.939140000000    -0.00951768 
C731     C      0.786230000000     0.256340000000     0.977630000000    -0.0544335  
C732     C      0.790060000000     0.208030000000     0.026610000000    -0.0550742  
C733     C      0.767000000000     0.242830000000     0.991850000000     0.0628999  
C734     C      0.740890000000     0.287880000000     0.989440000000    -0.0285506  
C735     C      0.809280000000     0.221560000000     0.012390000000     0.0644016  
C736     C      0.835540000000     0.176680000000     0.015150000000    -0.0580373  
C737     C      0.807140000000     0.245720000000     0.987880000000    -0.0506862  
C738     C      0.860140000000     0.169000000000     0.020340000000     0.117232   
C739     C      0.860420000000     0.213630000000     0.064650000000    -0.00387844 
C740     C      0.769140000000     0.218640000000     0.016350000000    -0.051924   
C741     C      0.492620000000     0.496660000000     0.048510000000    -0.0298891  
C742     C      0.588980000000     0.473750000000     0.939640000000    -0.0285118  
C743     C      0.614370000000     0.426340000000     0.978060000000    -0.0104678  
C744     C      0.613680000000     0.469340000000     0.932700000000    -0.00956402 
C745     C      0.559210000000     0.500170000000     0.008080000000    -0.050004   
C746     C      0.522160000000     0.470040000000     0.979900000000    -0.0512046  
C747     C      0.562130000000     0.475620000000     0.984190000000     0.0633321  
C748     C      0.589630000000     0.432430000000     0.983080000000    -0.0279073  
C749     C      0.519240000000     0.494600000000     0.003800000000     0.0657344  
C750     C      0.492040000000     0.538080000000     0.005080000000    -0.0602943  
C751     C      0.537990000000     0.509660000000     0.017880000000    -0.0546993  
C752     C      0.467490000000     0.545390000000     0.011170000000     0.120177   
C753     C      0.468090000000     0.501870000000     0.056120000000    -0.0016909  
C754     C      0.543400000000     0.460540000000     0.970100000000    -0.0541827  
C755     C      0.834780000000     0.505590000000     0.686300000000    -0.0296435  
C756     C      0.736190000000     0.484360000000     0.790470000000    -0.0288028  
C757     C      0.711930000000     0.434670000000     0.753480000000    -0.00974641 
C758     C      0.711600000000     0.478660000000     0.797200000000    -0.00882114 
C759     C      0.767180000000     0.509270000000     0.722930000000    -0.0519841  
C760     C      0.803600000000     0.479790000000     0.753590000000    -0.0508114  
C761     C      0.763770000000     0.485110000000     0.747080000000     0.0636733  
C762     C      0.736510000000     0.441670000000     0.747930000000    -0.0281898  
C763     C      0.807010000000     0.503950000000     0.729450000000     0.0646822  
C764     C      0.834310000000     0.547320000000     0.729210000000    -0.0583303  
C765     C      0.788600000000     0.518710000000     0.714110000000    -0.054953   
C766     C      0.859130000000     0.553840000000     0.725470000000     0.117696   
C767     C      0.859590000000     0.509830000000     0.680600000000    -0.00326073 
C768     C      0.782190000000     0.470380000000     0.762410000000    -0.0545915  
C769     C      0.884610000000     0.057550000000     0.177630000000     0.395824   
C770     C      0.885180000000     0.665630000000     0.568800000000     0.392896   
C771     C      0.885400000000     0.666620000000     0.178830000000     0.386421   
C772     C      0.886650000000     0.056520000000     0.566740000000     0.389292   
C773     C      0.446100000000     0.052590000000     0.563170000000     0.405158   
C774     C      0.444780000000     0.671900000000     0.184750000000     0.394435   
C775     C      0.442820000000     0.049950000000     0.186410000000     0.398799   
C776     C      0.450310000000     0.666720000000     0.568620000000     0.406795   
C777     C      0.692730000000     0.925610000000     0.307210000000     0.398163   
C778     C      0.695330000000     0.803940000000     0.431170000000     0.391966   
C779     C      0.696220000000     0.923110000000     0.431030000000     0.402612   
C780     C      0.694720000000     0.802930000000     0.309790000000     0.404878   
C781     C      0.636640000000     0.807700000000     0.314110000000     0.395031   
C782     C      0.637530000000     0.920340000000     0.427740000000     0.386905   
C783     C      0.634810000000     0.917590000000     0.316530000000     0.395078   
C784     C      0.630090000000     0.818610000000     0.417180000000     0.383302   
C785     C      0.587050000000     0.796060000000     0.261800000000    -0.0281293  
C786     C      0.491130000000     0.686930000000     0.241100000000    -0.0294014  
C787     C      0.464960000000     0.724070000000     0.193430000000    -0.00816278 
C788     C      0.466540000000     0.679220000000     0.236470000000    -0.00855639 
C789     C      0.536190000000     0.717990000000     0.226300000000    -0.0539785  
C790     C      0.542080000000     0.764860000000     0.276220000000    -0.0555601  
C791     C      0.517610000000     0.731360000000     0.242450000000     0.0629604  
C792     C      0.489600000000     0.730170000000     0.199460000000    -0.0295585  
C793     C      0.560650000000     0.751540000000     0.260010000000     0.0651469  
C794     C      0.588820000000     0.752450000000     0.302750000000    -0.0576791  
C795     C      0.557490000000     0.728060000000     0.235080000000    -0.050229   
C796     C      0.613600000000     0.757950000000     0.308480000000     0.116708   
C797     C      0.611730000000     0.803510000000     0.265530000000    -0.00530543 
C798     C      0.520770000000     0.754800000000     0.267420000000    -0.052149   
C799     C      0.491980000000     0.730930000000     0.547090000000    -0.0305441  
C800     C      0.583110000000     0.762690000000     0.431530000000    -0.0297259  
C801     C      0.597610000000     0.827320000000     0.453280000000    -0.0082308  
C802     C      0.597300000000     0.783670000000     0.408500000000    -0.00845118 
C803     C      0.531080000000     0.770590000000     0.465910000000    -0.0516427  
C804     C      0.544180000000     0.723930000000     0.512810000000    -0.0507245  
C805     C      0.553620000000     0.765210000000     0.471690000000     0.0627986  
C806     C      0.583380000000     0.804580000000     0.474500000000    -0.0298574  
C807     C      0.521670000000     0.729300000000     0.507020000000     0.0658414  
C808     C      0.492170000000     0.689360000000     0.504270000000    -0.0592151  
C809     C      0.515160000000     0.752810000000     0.483390000000    -0.0558165  
C810     C      0.479310000000     0.665070000000     0.525800000000     0.120505   
C811     C      0.479040000000     0.709220000000     0.571070000000    -0.000656778
C812     C      0.560100000000     0.741680000000     0.495350000000    -0.0538463  
C813     C      0.584890000000     0.969500000000     0.307580000000    -0.0295286  
C814     C      0.486640000000     0.991350000000     0.202680000000    -0.0293378  
C815     C      0.462370000000     0.040890000000     0.239850000000    -0.00872896 
C816     C      0.462060000000     0.997090000000     0.195880000000    -0.00810396 
C817     C      0.517400000000     0.966040000000     0.270420000000    -0.0519415  
C818     C      0.553980000000     0.995350000000     0.240060000000    -0.0502615  
C819     C      0.514110000000     0.990240000000     0.246260000000     0.0634823  
C820     C      0.486940000000     0.033810000000     0.245390000000    -0.0289649  
C821     C      0.557260000000     0.971160000000     0.264220000000     0.0650728  
C822     C      0.584480000000     0.927660000000     0.264800000000    -0.0580897  
C823     C      0.538770000000     0.956500000000     0.279410000000    -0.05527    
C824     C      0.609300000000     0.921050000000     0.268720000000     0.117442   
C825     C      0.609690000000     0.965190000000     0.313470000000    -0.00343695 
C826     C      0.532620000000     0.004890000000     0.231080000000    -0.0541105  
C827     C      0.739240000000     0.744540000000     0.294690000000    -0.0287219  
C828     C      0.836560000000     0.719940000000     0.189100000000    -0.0290691  
C829     C      0.860860000000     0.671370000000     0.227690000000    -0.0101662  
C830     C      0.861290000000     0.715260000000     0.183030000000    -0.00907675 
C831     C      0.806240000000     0.746460000000     0.256610000000    -0.0519826  
C832     C      0.769270000000     0.717540000000     0.226920000000    -0.0511916  
C833     C      0.809180000000     0.721920000000     0.232750000000     0.0630068  
C834     C      0.836140000000     0.678030000000     0.231930000000    -0.0283898  
C835     C      0.766330000000     0.742100000000     0.250800000000     0.0650309  
C836     C      0.739700000000     0.786280000000     0.251390000000    -0.0578823  
C837     C      0.785030000000     0.756540000000     0.265640000000    -0.0554195  
C838     C      0.715260000000     0.794450000000     0.257220000000     0.11722    
C839     C      0.714780000000     0.750660000000     0.301770000000    -0.00362005 
C840     C      0.790510000000     0.707450000000     0.217880000000    -0.0543622  
C841     C      0.741750000000     0.980290000000     0.446260000000    -0.0293428  
C842     C      0.838420000000     0.002620000000     0.554250000000    -0.0285252  
C843     C      0.862950000000     0.051860000000     0.516930000000    -0.0109633  
C844     C      0.863090000000     0.007380000000     0.560910000000    -0.00945549 
C845     C      0.792580000000     0.015780000000     0.524920000000    -0.0547039  
C846     C      0.787350000000     0.967840000000     0.475890000000    -0.0550051  
C847     C      0.811340000000     0.001470000000     0.510120000000     0.0636495  
C848     C      0.838290000000     0.045260000000     0.512110000000    -0.0275518  
C849     C      0.768570000000     0.982160000000     0.490640000000     0.0647337  
C850     C      0.741840000000     0.938190000000     0.489110000000    -0.0582572  
C851     C      0.771380000000     0.006120000000     0.515170000000    -0.0510548  
C852     C      0.717370000000     0.930430000000     0.483170000000     0.117861   
C853     C      0.717280000000     0.974540000000     0.438840000000    -0.00307381 
C854     C      0.808520000000     0.977510000000     0.485620000000    -0.0519437  
C855     C      0.835850000000     0.718970000000     0.557340000000    -0.0295338  
C856     C      0.740450000000     0.745590000000     0.446880000000    -0.028905   
C857     C      0.716500000000     0.796030000000     0.483340000000    -0.00985673 
C858     C      0.716040000000     0.752100000000     0.439140000000    -0.0095172  
C859     C      0.786230000000     0.756340000000     0.477630000000    -0.0544021  
C860     C      0.790060000000     0.708030000000     0.526610000000    -0.0550769  
C861     C      0.767000000000     0.742820000000     0.491850000000     0.0628853  
C862     C      0.740890000000     0.787880000000     0.489440000000    -0.0285514  
C863     C      0.809280000000     0.721560000000     0.512390000000     0.0644169  
C864     C      0.835540000000     0.676680000000     0.515150000000    -0.0580356  
C865     C      0.807140000000     0.745720000000     0.487880000000    -0.0507284  
C866     C      0.860140000000     0.669000000000     0.520340000000     0.117234   
C867     C      0.860420000000     0.713630000000     0.564640000000    -0.00381633 
C868     C      0.769140000000     0.718640000000     0.516350000000    -0.0519294  
C869     C      0.492620000000     0.996660000000     0.548520000000    -0.0300691  
C870     C      0.588980000000     0.973750000000     0.439640000000    -0.0285125  
C871     C      0.614370000000     0.926340000000     0.478060000000    -0.0104666  
C872     C      0.613680000000     0.969340000000     0.432700000000    -0.0095637  
C873     C      0.559210000000     0.000170000000     0.508080000000    -0.0499802  
C874     C      0.522160000000     0.970040000000     0.479900000000    -0.0511999  
C875     C      0.562130000000     0.975620000000     0.484190000000     0.0633078  
C876     C      0.589630000000     0.932430000000     0.483080000000    -0.0279115  
C877     C      0.519240000000     0.994600000000     0.503800000000     0.0656954  
C878     C      0.492040000000     0.038080000000     0.505080000000    -0.0602872  
C879     C      0.537990000000     0.009660000000     0.517880000000    -0.0546717  
C880     C      0.467490000000     0.045390000000     0.511170000000     0.120163   
C881     C      0.468090000000     0.001870000000     0.556120000000    -0.00156135 
C882     C      0.543400000000     0.960540000000     0.470100000000    -0.054182   
C883     C      0.834780000000     0.005590000000     0.186300000000    -0.0296474  
C884     C      0.736190000000     0.984360000000     0.290470000000    -0.028792   
C885     C      0.711930000000     0.934670000000     0.253480000000    -0.0097466  
C886     C      0.711600000000     0.978660000000     0.297200000000    -0.00882611 
C887     C      0.767180000000     0.009270000000     0.222930000000    -0.0519417  
C888     C      0.803600000000     0.979790000000     0.253590000000    -0.050855   
C889     C      0.763770000000     0.985110000000     0.247080000000     0.0636349  
C890     C      0.736510000000     0.941670000000     0.247930000000    -0.0281903  
C891     C      0.807010000000     0.003950000000     0.229450000000     0.0647231  
C892     C      0.834310000000     0.047320000000     0.229210000000    -0.0582971  
C893     C      0.788600000000     0.018710000000     0.214110000000    -0.0549751  
C894     C      0.859130000000     0.053840000000     0.225470000000     0.117692   
C895     C      0.859590000000     0.009830000000     0.180610000000    -0.0031793  
C896     C      0.782190000000     0.970380000000     0.262410000000    -0.0545689  
C897     C      0.884610000000     0.057550000000     0.677630000000     0.395824   
C898     C      0.885180000000     0.665630000000     0.068800000000     0.392896   
C899     C      0.885400000000     0.666620000000     0.678830000000     0.38642    
C900     C      0.886650000000     0.056520000000     0.066740000000     0.389112   
C901     C      0.446100000000     0.052590000000     0.063170000000     0.405156   
C902     C      0.444780000000     0.671900000000     0.684750000000     0.394617   
C903     C      0.442820000000     0.049950000000     0.686410000000     0.398799   
C904     C      0.450310000000     0.666720000000     0.068620000000     0.406794   
C905     C      0.692730000000     0.925610000000     0.807210000000     0.398163   
C906     C      0.695330000000     0.803940000000     0.931170000000     0.391967   
C907     C      0.696220000000     0.923110000000     0.931030000000     0.402612   
C908     C      0.694720000000     0.802930000000     0.809790000000     0.40488    
C909     C      0.636640000000     0.807700000000     0.814110000000     0.395031   
C910     C      0.637530000000     0.920340000000     0.927740000000     0.386905   
C911     C      0.634810000000     0.917590000000     0.816530000000     0.395078   
C912     C      0.630090000000     0.818610000000     0.917180000000     0.383302   
C913     C      0.587050000000     0.796060000000     0.761800000000    -0.0281293  
C914     C      0.491130000000     0.686930000000     0.741100000000    -0.0293814  
C915     C      0.464960000000     0.724070000000     0.693430000000    -0.00815764 
C916     C      0.466540000000     0.679220000000     0.736470000000    -0.00855901 
C917     C      0.536190000000     0.717990000000     0.726300000000    -0.0539787  
C918     C      0.542080000000     0.764860000000     0.776220000000    -0.0555599  
C919     C      0.517610000000     0.731360000000     0.742450000000     0.0629624  
C920     C      0.489600000000     0.730170000000     0.699460000000    -0.0295479  
C921     C      0.560650000000     0.751540000000     0.760010000000     0.0651468  
C922     C      0.588820000000     0.752450000000     0.802750000000    -0.0576791  
C923     C      0.557490000000     0.728060000000     0.735080000000    -0.0502288  
C924     C      0.613600000000     0.757950000000     0.808480000000     0.116708   
C925     C      0.611730000000     0.803510000000     0.765530000000    -0.00530541 
C926     C      0.520770000000     0.754800000000     0.767420000000    -0.0521491  
C927     C      0.491980000000     0.730930000000     0.047090000000    -0.0305442  
C928     C      0.583110000000     0.762690000000     0.931530000000    -0.029726   
C929     C      0.597610000000     0.827320000000     0.953280000000    -0.00823072 
C930     C      0.597300000000     0.783670000000     0.908500000000    -0.00845111 
C931     C      0.531080000000     0.770590000000     0.965910000000    -0.0516423  
C932     C      0.544180000000     0.723930000000     0.012810000000    -0.0507294  
C933     C      0.553620000000     0.765210000000     0.971690000000     0.0627968  
C934     C      0.583380000000     0.804580000000     0.974500000000    -0.0298575  
C935     C      0.521670000000     0.729300000000     0.007020000000     0.0658391  
C936     C      0.492170000000     0.689360000000     0.004270000000    -0.0592225  
C937     C      0.515160000000     0.752810000000     0.983390000000    -0.0558138  
C938     C      0.479310000000     0.665070000000     0.025800000000     0.120507   
C939     C      0.479040000000     0.709220000000     0.071070000000    -0.000656812
C940     C      0.560100000000     0.741680000000     0.995350000000    -0.0538387  
C941     C      0.584890000000     0.969500000000     0.807580000000    -0.0295295  
C942     C      0.486640000000     0.991350000000     0.702680000000    -0.0293449  
C943     C      0.462370000000     0.040890000000     0.739850000000    -0.00872907 
C944     C      0.462060000000     0.997090000000     0.695880000000    -0.00808754 
C945     C      0.517400000000     0.966040000000     0.770420000000    -0.0519418  
C946     C      0.553980000000     0.995350000000     0.740060000000    -0.0502606  
C947     C      0.514110000000     0.990240000000     0.746260000000     0.0634825  
C948     C      0.486940000000     0.033810000000     0.745390000000    -0.0289656  
C949     C      0.557260000000     0.971160000000     0.764220000000     0.065071   
C950     C      0.584480000000     0.927660000000     0.764800000000    -0.0581443  
C951     C      0.538770000000     0.956500000000     0.779410000000    -0.0552694  
C952     C      0.609300000000     0.921050000000     0.768720000000     0.117458   
C953     C      0.609690000000     0.965190000000     0.813470000000    -0.00343562 
C954     C      0.532620000000     0.004890000000     0.731080000000    -0.0541107  
C955     C      0.739240000000     0.744540000000     0.794690000000    -0.0287222  
C956     C      0.836560000000     0.719940000000     0.689110000000    -0.0289695  
C957     C      0.860860000000     0.671370000000     0.727690000000    -0.0101692  
C958     C      0.861290000000     0.715260000000     0.683030000000    -0.00912001 
C959     C      0.806240000000     0.746460000000     0.756610000000    -0.0519834  
C960     C      0.769270000000     0.717540000000     0.726920000000    -0.0511911  
C961     C      0.809180000000     0.721920000000     0.732750000000     0.0630081  
C962     C      0.836140000000     0.678030000000     0.731930000000    -0.0283882  
C963     C      0.766330000000     0.742100000000     0.750800000000     0.0650302  
C964     C      0.739700000000     0.786280000000     0.751390000000    -0.0578923  
C965     C      0.785030000000     0.756540000000     0.765640000000    -0.055419   
C966     C      0.715260000000     0.794450000000     0.757220000000     0.117251   
C967     C      0.714780000000     0.750660000000     0.801770000000    -0.00361887 
C968     C      0.790510000000     0.707450000000     0.717880000000    -0.0543635  
C969     C      0.741750000000     0.980290000000     0.946260000000    -0.0293427  
C970     C      0.838420000000     0.002620000000     0.054250000000    -0.0285218  
C971     C      0.862950000000     0.051860000000     0.016930000000    -0.0109718  
C972     C      0.863090000000     0.007380000000     0.060910000000    -0.00946642 
C973     C      0.792580000000     0.015780000000     0.024920000000    -0.054701   
C974     C      0.787350000000     0.967840000000     0.975890000000    -0.0550081  
C975     C      0.811340000000     0.001470000000     0.010120000000     0.0636442  
C976     C      0.838290000000     0.045260000000     0.012110000000    -0.0275529  
C977     C      0.768570000000     0.982160000000     0.990640000000     0.0647387  
C978     C      0.741840000000     0.938190000000     0.989110000000    -0.0582541  
C979     C      0.771380000000     0.006120000000     0.015170000000    -0.0510605  
C980     C      0.717370000000     0.930430000000     0.983170000000     0.117862   
C981     C      0.717280000000     0.974540000000     0.938840000000    -0.00307381 
C982     C      0.808520000000     0.977510000000     0.985620000000    -0.0519383  
C983     C      0.835850000000     0.718970000000     0.057340000000    -0.0295078  
C984     C      0.740450000000     0.745590000000     0.946880000000    -0.0289049  
C985     C      0.716500000000     0.796030000000     0.983340000000    -0.00985412 
C986     C      0.716040000000     0.752100000000     0.939140000000    -0.00951711 
C987     C      0.786230000000     0.756340000000     0.977630000000    -0.0543999  
C988     C      0.790060000000     0.708030000000     0.026610000000    -0.0550888  
C989     C      0.767000000000     0.742820000000     0.991850000000     0.0628807  
C990     C      0.740890000000     0.787880000000     0.989440000000    -0.0285491  
C991     C      0.809280000000     0.721560000000     0.012390000000     0.0644176  
C992     C      0.835540000000     0.676680000000     0.015150000000    -0.058037   
C993     C      0.807140000000     0.745720000000     0.987880000000    -0.0507277  
C994     C      0.860140000000     0.669000000000     0.020340000000     0.117231   
C995     C      0.860420000000     0.713630000000     0.064650000000    -0.00387863 
C996     C      0.769140000000     0.718640000000     0.016350000000    -0.0519066  
C997     C      0.492620000000     0.996660000000     0.048510000000    -0.0299695  
C998     C      0.588980000000     0.973750000000     0.939640000000    -0.0285123  
C999     C      0.614370000000     0.926340000000     0.978060000000    -0.0104677  
C1000    C      0.613680000000     0.969340000000     0.932700000000    -0.0095638  
C1001    C      0.559210000000     0.000170000000     0.008080000000    -0.0499856  
C1002    C      0.522160000000     0.970040000000     0.979900000000    -0.0511951  
C1003    C      0.562130000000     0.975620000000     0.984190000000     0.0633126  
C1004    C      0.589630000000     0.932430000000     0.983080000000    -0.0279079  
C1005    C      0.519240000000     0.994600000000     0.003800000000     0.065691   
C1006    C      0.492040000000     0.038080000000     0.005080000000    -0.0602894  
C1007    C      0.537990000000     0.009660000000     0.017880000000    -0.0546698  
C1008    C      0.467490000000     0.045390000000     0.011170000000     0.120159   
C1009    C      0.468090000000     0.001870000000     0.056120000000    -0.00160491 
C1010    C      0.543400000000     0.960540000000     0.970100000000    -0.0541847  
C1011    C      0.834780000000     0.005590000000     0.686300000000    -0.0296213  
C1012    C      0.736190000000     0.984360000000     0.790470000000    -0.028792   
C1013    C      0.711930000000     0.934670000000     0.753480000000    -0.00974664 
C1014    C      0.711600000000     0.978660000000     0.797200000000    -0.00882613 
C1015    C      0.767180000000     0.009270000000     0.722930000000    -0.0519416  
C1016    C      0.803600000000     0.979790000000     0.753590000000    -0.050855   
C1017    C      0.763770000000     0.985110000000     0.747080000000     0.0636348  
C1018    C      0.736510000000     0.941670000000     0.747930000000    -0.0281903  
C1019    C      0.807010000000     0.003950000000     0.729450000000     0.0647233  
C1020    C      0.834310000000     0.047320000000     0.729210000000    -0.058295   
C1021    C      0.788600000000     0.018710000000     0.714110000000    -0.0549753  
C1022    C      0.859130000000     0.053840000000     0.725470000000     0.117691   
C1023    C      0.859590000000     0.009830000000     0.680600000000    -0.00324185 
C1024    C      0.782190000000     0.970380000000     0.762410000000    -0.0545689  
Co1      Co     0.418160000000     0.563190000000     0.623580000000     0.838685   
Co2      Co     0.917990000000     0.159840000000     0.123970000000     0.83874    
Co3      Co     0.417760000000     0.611550000000     0.172910000000     0.837302   
Co4      Co     0.918310000000     0.611650000000     0.574840000000     0.842226   
Co5      Co     0.168110000000     0.363770000000     0.321320000000     0.835836   
Co6      Co     0.168500000000     0.364250000000     0.419250000000     0.833945   
Co7      Co     0.168520000000     0.412330000000     0.370390000000     0.834735   
Co8      Co     0.168170000000     0.315830000000     0.370330000000     0.836108   
Co9      Co     0.418160000000     0.563190000000     0.123580000000     0.838712   
Co10     Co     0.917990000000     0.159840000000     0.623970000000     0.838708   
Co11     Co     0.417760000000     0.611550000000     0.672910000000     0.837317   
Co12     Co     0.918310000000     0.611650000000     0.074840000000     0.842211   
Co13     Co     0.168110000000     0.363770000000     0.821320000000     0.835836   
Co14     Co     0.168500000000     0.364250000000     0.919250000000     0.833945   
Co15     Co     0.168520000000     0.412330000000     0.870390000000     0.834735   
Co16     Co     0.168170000000     0.315830000000     0.870330000000     0.836108   
Co17     Co     0.418160000000     0.063190000000     0.623580000000     0.838697   
Co18     Co     0.917990000000     0.659840000000     0.123970000000     0.838738   
Co19     Co     0.417760000000     0.111550000000     0.172910000000     0.837302   
Co20     Co     0.918310000000     0.111650000000     0.574840000000     0.842212   
Co21     Co     0.168110000000     0.863770000000     0.321320000000     0.835836   
Co22     Co     0.168500000000     0.864250000000     0.419250000000     0.833945   
Co23     Co     0.168520000000     0.912330000000     0.370390000000     0.834734   
Co24     Co     0.168170000000     0.815830000000     0.370330000000     0.836108   
Co25     Co     0.418160000000     0.063190000000     0.123580000000     0.838724   
Co26     Co     0.917990000000     0.659840000000     0.623970000000     0.838706   
Co27     Co     0.417760000000     0.111550000000     0.672910000000     0.837316   
Co28     Co     0.918310000000     0.111650000000     0.074840000000     0.842197   
Co29     Co     0.168110000000     0.863770000000     0.821320000000     0.835837   
Co30     Co     0.168500000000     0.864250000000     0.919250000000     0.833945   
Co31     Co     0.168520000000     0.912330000000     0.870390000000     0.834734   
Co32     Co     0.168170000000     0.815830000000     0.870330000000     0.836108   
Co33     Co     0.918160000000     0.563190000000     0.623580000000     0.83869    
Co34     Co     0.417990000000     0.159840000000     0.123970000000     0.838745   
Co35     Co     0.917760000000     0.611550000000     0.172910000000     0.837298   
Co36     Co     0.418310000000     0.611650000000     0.574840000000     0.842221   
Co37     Co     0.668110000000     0.363770000000     0.321320000000     0.835839   
Co38     Co     0.668500000000     0.364250000000     0.419250000000     0.833951   
Co39     Co     0.668520000000     0.412330000000     0.370390000000     0.834668   
Co40     Co     0.668170000000     0.315830000000     0.370330000000     0.836107   
Co41     Co     0.918160000000     0.563190000000     0.123580000000     0.838717   
Co42     Co     0.417990000000     0.159840000000     0.623970000000     0.838713   
Co43     Co     0.917760000000     0.611550000000     0.672910000000     0.837312   
Co44     Co     0.418310000000     0.611650000000     0.074840000000     0.842206   
Co45     Co     0.668110000000     0.363770000000     0.821320000000     0.835839   
Co46     Co     0.668500000000     0.364250000000     0.919250000000     0.833951   
Co47     Co     0.668520000000     0.412330000000     0.870390000000     0.834668   
Co48     Co     0.668170000000     0.315830000000     0.870330000000     0.836107   
Co49     Co     0.918160000000     0.063190000000     0.623580000000     0.838703   
Co50     Co     0.417990000000     0.659840000000     0.123970000000     0.838743   
Co51     Co     0.917760000000     0.111550000000     0.172910000000     0.837297   
Co52     Co     0.418310000000     0.111650000000     0.574840000000     0.842208   
Co53     Co     0.668110000000     0.863770000000     0.321320000000     0.835839   
Co54     Co     0.668500000000     0.864250000000     0.419250000000     0.833951   
Co55     Co     0.668520000000     0.912330000000     0.370390000000     0.834668   
Co56     Co     0.668170000000     0.815830000000     0.370330000000     0.836107   
Co57     Co     0.918160000000     0.063190000000     0.123580000000     0.838729   
Co58     Co     0.417990000000     0.659840000000     0.623970000000     0.838711   
Co59     Co     0.917760000000     0.111550000000     0.672910000000     0.837311   
Co60     Co     0.418310000000     0.111650000000     0.074840000000     0.842192   
Co61     Co     0.668110000000     0.863770000000     0.821320000000     0.835839   
Co62     Co     0.668500000000     0.864250000000     0.919250000000     0.833951   
Co63     Co     0.668520000000     0.912330000000     0.870390000000     0.834668   
Co64     Co     0.668170000000     0.815830000000     0.870330000000     0.836107   
H1       H      0.006640000000     0.265300000000     0.280060000000     0.0474546  
H2       H      0.081980000000     0.302310000000     0.235990000000     0.040907   
H3       H      0.084830000000     0.226280000000     0.307690000000     0.0592068  
H4       H      0.955330000000     0.241850000000     0.208540000000     0.0418879  
H5       H      0.120810000000     0.291490000000     0.244850000000     0.0655034  
H6       H      0.995750000000     0.181230000000     0.267240000000     0.039206   
H7       H      0.993110000000     0.256520000000     0.194710000000     0.0375321  
H8       H      0.964010000000     0.152510000000     0.240160000000     0.0500659  
H9       H      0.116940000000     0.254090000000     0.335340000000     0.0342801  
H10      H      0.044050000000     0.282980000000     0.295620000000     0.0419945  
H11      H      0.114130000000     0.330380000000     0.262920000000     0.053338   
H12      H      0.034230000000     0.199830000000     0.206940000000     0.0460856  
H13      H      0.077520000000     0.311880000000     0.279210000000     0.0368522  
H14      H      0.961290000000     0.229000000000     0.166840000000     0.0488499  
H15      H      0.001010000000     0.170840000000     0.224400000000     0.0420454  
H16      H      0.999390000000     0.215330000000     0.181510000000     0.0419072  
H17      H      0.071620000000     0.217560000000     0.222450000000     0.0576378  
H18      H      0.079340000000     0.267560000000     0.320860000000     0.0424368  
H19      H      0.957040000000     0.192290000000     0.256060000000     0.0438606  
H20      H      0.077400000000     0.237010000000     0.500250000000     0.0459039  
H21      H      0.002470000000     0.247910000000     0.561930000000     0.0385757  
H22      H      0.002730000000     0.175530000000     0.486460000000     0.0612756  
H23      H      0.086700000000     0.345610000000     0.441020000000     0.0380239  
H24      H      0.990630000000     0.199270000000     0.589990000000     0.0515508  
H25      H      0.072300000000     0.246840000000     0.415960000000     0.0378822  
H26      H      0.072740000000     0.319890000000     0.490880000000     0.0371302  
H27      H      0.108500000000     0.267170000000     0.394400000000     0.0505166  
H28      H      0.967140000000     0.152370000000     0.509570000000     0.0381239  
H29      H      0.049380000000     0.205880000000     0.530920000000     0.0559399  
H30      H      0.966830000000     0.224790000000     0.584420000000     0.0465341  
H31      H      0.025890000000     0.288590000000     0.447750000000     0.0468199  
H32      H      0.980210000000     0.245930000000     0.532200000000     0.0410324  
H33      H      0.109030000000     0.340840000000     0.469990000000     0.0490893  
H34      H      0.094100000000     0.246570000000     0.446560000000     0.0429098  
H35      H      0.094360000000     0.289440000000     0.490540000000     0.0425673  
H36      H      0.997830000000     0.257360000000     0.478500000000     0.045228   
H37      H      0.980280000000     0.204200000000     0.489440000000     0.0496826  
H38      H      0.086330000000     0.296120000000     0.390270000000     0.0376553  
H39      H      0.030550000000     0.523610000000     0.212310000000     0.0457198  
H40      H      0.080420000000     0.495310000000     0.313440000000     0.0395806  
H41      H      0.079480000000     0.422010000000     0.238800000000     0.0593464  
H42      H      0.952650000000     0.526790000000     0.258440000000     0.0511612  
H43      H      0.118670000000     0.485010000000     0.300170000000     0.0567708  
H44      H      0.990460000000     0.465150000000     0.197600000000     0.038163   
H45      H      0.990970000000     0.538950000000     0.271860000000     0.0404837  
H46      H      0.958770000000     0.492330000000     0.169150000000     0.0494377  
H47      H      0.111920000000     0.394230000000     0.266050000000     0.0339612  
H48      H      0.068060000000     0.506820000000     0.228180000000     0.0568153  
H49      H      0.112960000000     0.468330000000     0.340460000000     0.0471591  
H50      H      0.003320000000     0.454540000000     0.282280000000     0.0489804  
H51      H      0.075610000000     0.453180000000     0.324820000000     0.0371013  
H52      H      0.959320000000     0.567360000000     0.244390000000     0.0528676  
H53      H      0.996560000000     0.506690000000     0.185330000000     0.0418797  
H54      H      0.996890000000     0.550620000000     0.229550000000     0.0417551  
H55      H      0.040870000000     0.437740000000     0.298130000000     0.0423746  
H56      H      0.075180000000     0.410830000000     0.281500000000     0.0428033  
H57      H      0.952350000000     0.479060000000     0.210570000000     0.0456456  
H58      H      0.292370000000     0.188460000000     0.199320000000     0.042959   
H59      H      0.242960000000     0.218400000000     0.300240000000     0.0401514  
H60      H      0.243880000000     0.291170000000     0.224920000000     0.059706   
H61      H      0.370010000000     0.184660000000     0.247510000000     0.0462113  
H62      H      0.204850000000     0.232230000000     0.287950000000     0.0644132  
H63      H      0.332250000000     0.245830000000     0.183360000000     0.0369049  
H64      H      0.331530000000     0.172700000000     0.258150000000     0.0391794  
H65      H      0.364560000000     0.218780000000     0.156090000000     0.0475711  
H66      H      0.213180000000     0.321270000000     0.253680000000     0.0358895  
H67      H      0.255030000000     0.206220000000     0.215330000000     0.0554711  
H68      H      0.211780000000     0.246630000000     0.328700000000     0.0511342  
H69      H      0.320470000000     0.257800000000     0.268190000000     0.0484012  
H70      H      0.249350000000     0.260100000000     0.311590000000     0.0388854  
H71      H      0.363810000000     0.144740000000     0.231330000000     0.0520465  
H72      H      0.327090000000     0.203790000000     0.171920000000     0.0379471  
H73      H      0.326630000000     0.161180000000     0.215510000000     0.0380703  
H74      H      0.283230000000     0.275550000000     0.284180000000     0.0430419  
H75      H      0.249960000000     0.302920000000     0.266980000000     0.0447473  
H76      H      0.370450000000     0.234650000000     0.196710000000     0.0432012  
H77      H      0.322810000000     0.466310000000     0.474070000000     0.0500946  
H78      H      0.245660000000     0.506420000000     0.440950000000     0.0393868  
H79      H      0.245970000000     0.432930000000     0.515530000000     0.0596572  
H80      H      0.372280000000     0.538700000000     0.497220000000     0.0538957  
H81      H      0.207400000000     0.493160000000     0.452460000000     0.056477   
H82      H      0.334150000000     0.476600000000     0.559420000000     0.037399   
H83      H      0.333900000000     0.550990000000     0.485890000000     0.0402923  
H84      H      0.366160000000     0.503400000000     0.587840000000     0.0482513  
H85      H      0.215150000000     0.403590000000     0.486400000000     0.0348378  
H86      H      0.285640000000     0.449240000000     0.456920000000     0.0433503  
H87      H      0.214490000000     0.478520000000     0.411850000000     0.0476263  
H88      H      0.294330000000     0.534330000000     0.543940000000     0.0429428  
H89      H      0.251870000000     0.464730000000     0.429360000000     0.0389498  
H90      H      0.365940000000     0.578510000000     0.513530000000     0.0553783  
H91      H      0.328760000000     0.518380000000     0.571560000000     0.0378027  
H92      H      0.328630000000     0.561840000000     0.528610000000     0.0380874  
H93      H      0.257090000000     0.517290000000     0.526750000000     0.0547531  
H94      H      0.252030000000     0.421630000000     0.473330000000     0.0448189  
H95      H      0.372450000000     0.488360000000     0.547010000000     0.0473189  
H96      H      0.254530000000     0.208010000000     0.527520000000     0.0491844  
H97      H      0.331760000000     0.245030000000     0.562710000000     0.0381222  
H98      H      0.330950000000     0.170850000000     0.489020000000     0.0593785  
H99      H      0.206360000000     0.282940000000     0.502170000000     0.045675   
H100     H      0.370080000000     0.233080000000     0.551880000000     0.0544624  
H101     H      0.244000000000     0.219330000000     0.441740000000     0.0383643  
H102     H      0.244780000000     0.293050000000     0.515950000000     0.0395968  
H103     H      0.213300000000     0.248110000000     0.412140000000     0.0493244  
H104     H      0.362250000000     0.142020000000     0.518320000000     0.0334928  
H105     H      0.291230000000     0.189340000000     0.545590000000     0.0426455  
H106     H      0.363080000000     0.216680000000     0.591790000000     0.0460056  
H107     H      0.285080000000     0.275040000000     0.458660000000     0.0436756  
H108     H      0.325820000000     0.203280000000     0.574240000000     0.0368318  
H109     H      0.214080000000     0.322750000000     0.487220000000     0.0516119  
H110     H      0.250900000000     0.260730000000     0.430050000000     0.0398223  
H111     H      0.251360000000     0.304110000000     0.473720000000     0.0398221  
H112     H      0.321760000000     0.256370000000     0.476710000000     0.0548037  
H113     H      0.325530000000     0.160540000000     0.531630000000     0.042998   
H114     H      0.205860000000     0.233880000000     0.452820000000     0.0440928  
H115     H      0.045210000000     0.441510000000     0.451590000000     0.0427632  
H116     H      0.996870000000     0.470740000000     0.554230000000     0.039237   
H117     H      0.996010000000     0.543100000000     0.478560000000     0.064776   
H118     H      0.123650000000     0.440470000000     0.497110000000     0.0528287  
H119     H      0.958390000000     0.482730000000     0.542960000000     0.0551263  
H120     H      0.084390000000     0.499500000000     0.433730000000     0.0388066  
H121     H      0.085500000000     0.427380000000     0.509530000000     0.0392033  
H122     H      0.116520000000     0.472620000000     0.405630000000     0.0489942  
H123     H      0.965000000000     0.572150000000     0.507720000000     0.0467241  
H124     H      0.007910000000     0.458250000000     0.468850000000     0.0543543  
H125     H      0.965490000000     0.498290000000     0.583210000000     0.0479858  
H126     H      0.073460000000     0.511980000000     0.519120000000     0.0520506  
H127     H      0.002630000000     0.512760000000     0.565020000000     0.0434119  
H128     H      0.117760000000     0.399940000000     0.482400000000     0.0515817  
H129     H      0.079360000000     0.457260000000     0.422980000000     0.0381083  
H130     H      0.080070000000     0.415090000000     0.467270000000     0.0372687  
H131     H      0.036230000000     0.528690000000     0.536400000000     0.0496133  
H132     H      0.002130000000     0.555040000000     0.520530000000     0.062074   
H133     H      0.122920000000     0.488980000000     0.445880000000     0.047975   
H134     H      0.280020000000     0.451690000000     0.281190000000     0.0437735  
H135     H      0.330280000000     0.479800000000     0.180350000000     0.0381878  
H136     H      0.329240000000     0.552900000000     0.255200000000     0.0592691  
H137     H      0.202240000000     0.448800000000     0.234880000000     0.0530375  
H138     H      0.368500000000     0.489980000000     0.193970000000     0.0550347  
H139     H      0.240000000000     0.510580000000     0.295410000000     0.0389525  
H140     H      0.240550000000     0.436440000000     0.221480000000     0.0407972  
H141     H      0.208240000000     0.483640000000     0.323860000000     0.0499087  
H142     H      0.361800000000     0.580630000000     0.228300000000     0.0331058  
H143     H      0.317610000000     0.468280000000     0.265590000000     0.0548896  
H144     H      0.362950000000     0.506680000000     0.153640000000     0.0463863  
H145     H      0.253170000000     0.520840000000     0.210970000000     0.0502472  
H146     H      0.325580000000     0.521980000000     0.169030000000     0.03699    
H147     H      0.208830000000     0.408210000000     0.248970000000     0.0554767  
H148     H      0.246070000000     0.469110000000     0.307950000000     0.04032    
H149     H      0.246430000000     0.424880000000     0.263840000000     0.0402851  
H150     H      0.290800000000     0.537460000000     0.195400000000     0.0426945  
H151     H      0.325080000000     0.564240000000     0.212510000000     0.0430821  
H152     H      0.201920000000     0.496540000000     0.282280000000     0.0476461  
H153     H      0.006640000000     0.265300000000     0.780060000000     0.0474551  
H154     H      0.081980000000     0.302310000000     0.735990000000     0.040907   
H155     H      0.084830000000     0.226280000000     0.807690000000     0.0592069  
H156     H      0.955330000000     0.241850000000     0.708540000000     0.0418887  
H157     H      0.120810000000     0.291490000000     0.744850000000     0.0655036  
H158     H      0.995750000000     0.181230000000     0.767240000000     0.039203   
H159     H      0.993110000000     0.256520000000     0.694700000000     0.0375229  
H160     H      0.964010000000     0.152510000000     0.740160000000     0.0500649  
H161     H      0.116940000000     0.254090000000     0.835340000000     0.0342802  
H162     H      0.044050000000     0.282980000000     0.795620000000     0.0419945  
H163     H      0.114130000000     0.330380000000     0.762920000000     0.0533381  
H164     H      0.034230000000     0.199830000000     0.706940000000     0.0460851  
H165     H      0.077520000000     0.311880000000     0.779210000000     0.0368521  
H166     H      0.961290000000     0.229000000000     0.666840000000     0.0488491  
H167     H      0.001010000000     0.170840000000     0.724390000000     0.0420364  
H168     H      0.999390000000     0.215330000000     0.681510000000     0.0419017  
H169     H      0.071620000000     0.217560000000     0.722450000000     0.0576377  
H170     H      0.079340000000     0.267560000000     0.820860000000     0.0424368  
H171     H      0.957040000000     0.192290000000     0.756060000000     0.043861   
H172     H      0.077400000000     0.237010000000     0.000250000000     0.0458997  
H173     H      0.002470000000     0.247910000000     0.061930000000     0.0385756  
H174     H      0.002730000000     0.175530000000     0.986460000000     0.0612792  
H175     H      0.086700000000     0.345610000000     0.941020000000     0.0380239  
H176     H      0.990630000000     0.199270000000     0.089990000000     0.0515522  
H177     H      0.072300000000     0.246840000000     0.915960000000     0.0378824  
H178     H      0.072740000000     0.319890000000     0.990880000000     0.0371307  
H179     H      0.108500000000     0.267170000000     0.894400000000     0.0505167  
H180     H      0.967140000000     0.152370000000     0.009570000000     0.0381225  
H181     H      0.049380000000     0.205880000000     0.030920000000     0.0559407  
H182     H      0.966830000000     0.224790000000     0.084420000000     0.0465352  
H183     H      0.025890000000     0.288590000000     0.947750000000     0.04682    
H184     H      0.980210000000     0.245930000000     0.032200000000     0.0410315  
H185     H      0.109030000000     0.340840000000     0.969990000000     0.0490896  
H186     H      0.094100000000     0.246570000000     0.946560000000     0.0429103  
H187     H      0.094360000000     0.289440000000     0.990540000000     0.042568   
H188     H      0.997830000000     0.257360000000     0.978500000000     0.0452279  
H189     H      0.980280000000     0.204200000000     0.989440000000     0.049686   
H190     H      0.086330000000     0.296120000000     0.890270000000     0.0376553  
H191     H      0.030550000000     0.523610000000     0.712310000000     0.0457198  
H192     H      0.080420000000     0.495310000000     0.813440000000     0.0395808  
H193     H      0.079480000000     0.422010000000     0.738810000000     0.0593717  
H194     H      0.952650000000     0.526790000000     0.758440000000     0.0511601  
H195     H      0.118670000000     0.485010000000     0.800170000000     0.0567706  
H196     H      0.990460000000     0.465150000000     0.697600000000     0.0381646  
H197     H      0.990970000000     0.538950000000     0.771860000000     0.0404838  
H198     H      0.958770000000     0.492330000000     0.669150000000     0.0494357  
H199     H      0.111920000000     0.394230000000     0.766050000000     0.0339573  
H200     H      0.068060000000     0.506820000000     0.728180000000     0.0568152  
H201     H      0.112960000000     0.468330000000     0.840460000000     0.0471589  
H202     H      0.003320000000     0.454540000000     0.782280000000     0.0489802  
H203     H      0.075610000000     0.453180000000     0.824820000000     0.0371019  
H204     H      0.959320000000     0.567360000000     0.744390000000     0.0528679  
H205     H      0.996560000000     0.506690000000     0.685330000000     0.0418811  
H206     H      0.996890000000     0.550620000000     0.729550000000     0.0417551  
H207     H      0.040870000000     0.437740000000     0.798130000000     0.0423742  
H208     H      0.075180000000     0.410830000000     0.781500000000     0.0428147  
H209     H      0.952350000000     0.479060000000     0.710580000000     0.045642   
H210     H      0.292370000000     0.188460000000     0.699320000000     0.0429593  
H211     H      0.242960000000     0.218400000000     0.800240000000     0.0401516  
H212     H      0.243880000000     0.291170000000     0.724920000000     0.059707   
H213     H      0.370010000000     0.184660000000     0.747510000000     0.0462122  
H214     H      0.204850000000     0.232230000000     0.787950000000     0.0644158  
H215     H      0.332250000000     0.245830000000     0.683360000000     0.036874   
H216     H      0.331530000000     0.172700000000     0.758150000000     0.0391793  
H217     H      0.364560000000     0.218780000000     0.656090000000     0.0475801  
H218     H      0.213180000000     0.321270000000     0.753680000000     0.0358822  
H219     H      0.255030000000     0.206220000000     0.715330000000     0.0554706  
H220     H      0.211780000000     0.246630000000     0.828700000000     0.0511343  
H221     H      0.320470000000     0.257800000000     0.768190000000     0.0484014  
H222     H      0.249350000000     0.260100000000     0.811590000000     0.0388854  
H223     H      0.363810000000     0.144740000000     0.731330000000     0.0520474  
H224     H      0.327090000000     0.203790000000     0.671920000000     0.0379134  
H225     H      0.326630000000     0.161180000000     0.715510000000     0.0380692  
H226     H      0.283230000000     0.275550000000     0.784180000000     0.0430417  
H227     H      0.249960000000     0.302920000000     0.766980000000     0.0447491  
H228     H      0.370450000000     0.234650000000     0.696710000000     0.0432107  
H229     H      0.322810000000     0.466310000000     0.974070000000     0.0500937  
H230     H      0.245660000000     0.506420000000     0.940950000000     0.0393871  
H231     H      0.245970000000     0.432930000000     0.015530000000     0.0596545  
H232     H      0.372280000000     0.538700000000     0.997220000000     0.0538996  
H233     H      0.207400000000     0.493160000000     0.952460000000     0.0564776  
H234     H      0.334150000000     0.476600000000     0.059420000000     0.037398   
H235     H      0.333900000000     0.550990000000     0.985890000000     0.0402944  
H236     H      0.366160000000     0.503400000000     0.087840000000     0.0482539  
H237     H      0.215150000000     0.403590000000     0.986400000000     0.0348382  
H238     H      0.285640000000     0.449240000000     0.956920000000     0.0433512  
H239     H      0.214490000000     0.478520000000     0.911850000000     0.0476264  
H240     H      0.294330000000     0.534330000000     0.043940000000     0.042942   
H241     H      0.251870000000     0.464730000000     0.929360000000     0.0389497  
H242     H      0.365940000000     0.578510000000     0.013530000000     0.055381   
H243     H      0.328760000000     0.518380000000     0.071560000000     0.0378028  
H244     H      0.328630000000     0.561840000000     0.028610000000     0.0380881  
H245     H      0.257090000000     0.517290000000     0.026750000000     0.0547538  
H246     H      0.252030000000     0.421630000000     0.973330000000     0.0448185  
H247     H      0.372450000000     0.488360000000     0.047010000000     0.047319   
H248     H      0.254530000000     0.208010000000     0.027530000000     0.04917    
H249     H      0.331760000000     0.245030000000     0.062710000000     0.0381163  
H250     H      0.330950000000     0.170850000000     0.989020000000     0.0593807  
H251     H      0.206360000000     0.282940000000     0.002170000000     0.0456724  
H252     H      0.370080000000     0.233080000000     0.051880000000     0.0544799  
H253     H      0.244000000000     0.219330000000     0.941740000000     0.0383651  
H254     H      0.244780000000     0.293050000000     0.015950000000     0.0395943  
H255     H      0.213300000000     0.248110000000     0.912140000000     0.0493245  
H256     H      0.362250000000     0.142020000000     0.018320000000     0.0334926  
H257     H      0.291230000000     0.189340000000     0.045590000000     0.0426479  
H258     H      0.363080000000     0.216680000000     0.091790000000     0.0460257  
H259     H      0.285080000000     0.275040000000     0.958660000000     0.0436752  
H260     H      0.325820000000     0.203280000000     0.074240000000     0.0368268  
H261     H      0.214080000000     0.322750000000     0.987220000000     0.051612   
H262     H      0.250900000000     0.260730000000     0.930050000000     0.0398223  
H263     H      0.251360000000     0.304110000000     0.973720000000     0.0398219  
H264     H      0.321760000000     0.256370000000     0.976710000000     0.0548041  
H265     H      0.325530000000     0.160540000000     0.031630000000     0.0429985  
H266     H      0.205860000000     0.233880000000     0.952820000000     0.0440935  
H267     H      0.045210000000     0.441510000000     0.951590000000     0.042764   
H268     H      0.996870000000     0.470740000000     0.054230000000     0.0392056  
H269     H      0.996010000000     0.543100000000     0.978560000000     0.0647784  
H270     H      0.123650000000     0.440470000000     0.997110000000     0.0528297  
H271     H      0.958390000000     0.482730000000     0.042960000000     0.0551339  
H272     H      0.084390000000     0.499500000000     0.933730000000     0.0388068  
H273     H      0.085500000000     0.427380000000     0.009530000000     0.0392002  
H274     H      0.116520000000     0.472620000000     0.905630000000     0.0489943  
H275     H      0.965000000000     0.572150000000     0.007720000000     0.046724   
H276     H      0.007910000000     0.458250000000     0.968850000000     0.0543535  
H277     H      0.965490000000     0.498290000000     0.083210000000     0.0479941  
H278     H      0.073460000000     0.511980000000     0.019120000000     0.0520511  
H279     H      0.002630000000     0.512760000000     0.065020000000     0.0433785  
H280     H      0.117760000000     0.399940000000     0.982400000000     0.0515823  
H281     H      0.079360000000     0.457260000000     0.922980000000     0.0381082  
H282     H      0.080070000000     0.415090000000     0.967270000000     0.0372681  
H283     H      0.036230000000     0.528690000000     0.036400000000     0.0496127  
H284     H      0.002130000000     0.555040000000     0.020530000000     0.0620736  
H285     H      0.122920000000     0.488980000000     0.945880000000     0.0479753  
H286     H      0.280020000000     0.451690000000     0.781190000000     0.0437735  
H287     H      0.330280000000     0.479800000000     0.680350000000     0.0381823  
H288     H      0.329240000000     0.552900000000     0.755200000000     0.0592694  
H289     H      0.202240000000     0.448800000000     0.734880000000     0.0530375  
H290     H      0.368500000000     0.489980000000     0.693970000000     0.0550529  
H291     H      0.240000000000     0.510580000000     0.795410000000     0.0389525  
H292     H      0.240550000000     0.436440000000     0.721480000000     0.0407971  
H293     H      0.208240000000     0.483640000000     0.823860000000     0.0499088  
H294     H      0.361800000000     0.580630000000     0.728290000000     0.0331041  
H295     H      0.317610000000     0.468280000000     0.765590000000     0.0548896  
H296     H      0.362950000000     0.506680000000     0.653640000000     0.0464042  
H297     H      0.253170000000     0.520840000000     0.710970000000     0.0502471  
H298     H      0.325580000000     0.521980000000     0.669030000000     0.0369844  
H299     H      0.208830000000     0.408210000000     0.748970000000     0.0554766  
H300     H      0.246070000000     0.469110000000     0.807950000000     0.04032    
H301     H      0.246430000000     0.424880000000     0.763840000000     0.040285   
H302     H      0.290800000000     0.537460000000     0.695400000000     0.0426945  
H303     H      0.325080000000     0.564240000000     0.712510000000     0.0430814  
H304     H      0.201920000000     0.496540000000     0.782280000000     0.0476462  
H305     H      0.006640000000     0.765300000000     0.280060000000     0.0474479  
H306     H      0.081980000000     0.802310000000     0.235990000000     0.0409066  
H307     H      0.084830000000     0.726280000000     0.307690000000     0.0592063  
H308     H      0.955330000000     0.741850000000     0.208540000000     0.0418878  
H309     H      0.120810000000     0.791490000000     0.244850000000     0.0655031  
H310     H      0.995750000000     0.681230000000     0.267240000000     0.0392058  
H311     H      0.993110000000     0.756520000000     0.194710000000     0.0375314  
H312     H      0.964010000000     0.652510000000     0.240160000000     0.0500656  
H313     H      0.116940000000     0.754090000000     0.335340000000     0.0342798  
H314     H      0.044050000000     0.782980000000     0.295620000000     0.0419959  
H315     H      0.114130000000     0.830380000000     0.262920000000     0.0533379  
H316     H      0.034230000000     0.699830000000     0.206940000000     0.046086   
H317     H      0.077520000000     0.811880000000     0.279210000000     0.036852   
H318     H      0.961290000000     0.729000000000     0.166840000000     0.0488498  
H319     H      0.001010000000     0.670840000000     0.224400000000     0.0420447  
H320     H      0.999390000000     0.715330000000     0.181510000000     0.0419069  
H321     H      0.071620000000     0.717560000000     0.222450000000     0.057637   
H322     H      0.079340000000     0.767560000000     0.320860000000     0.0424368  
H323     H      0.957040000000     0.692290000000     0.256060000000     0.0438607  
H324     H      0.077400000000     0.737010000000     0.500250000000     0.0459035  
H325     H      0.002470000000     0.747910000000     0.561930000000     0.0385755  
H326     H      0.002730000000     0.675530000000     0.486460000000     0.0612753  
H327     H      0.086700000000     0.845610000000     0.441020000000     0.0380238  
H328     H      0.990630000000     0.699270000000     0.589990000000     0.0515506  
H329     H      0.072300000000     0.746840000000     0.415960000000     0.0378819  
H330     H      0.072740000000     0.819890000000     0.490880000000     0.03713    
H331     H      0.108500000000     0.767170000000     0.394400000000     0.0505164  
H332     H      0.967140000000     0.652370000000     0.509570000000     0.0381246  
H333     H      0.049380000000     0.705880000000     0.530920000000     0.0559393  
H334     H      0.966830000000     0.724790000000     0.584420000000     0.046534   
H335     H      0.025890000000     0.788590000000     0.447750000000     0.0468197  
H336     H      0.980210000000     0.745930000000     0.532200000000     0.0410323  
H337     H      0.109030000000     0.840840000000     0.469990000000     0.0490892  
H338     H      0.094100000000     0.746570000000     0.446560000000     0.0429093  
H339     H      0.094360000000     0.789440000000     0.490540000000     0.0425671  
H340     H      0.997830000000     0.757360000000     0.478500000000     0.0452279  
H341     H      0.980280000000     0.704200000000     0.489440000000     0.0496827  
H342     H      0.086330000000     0.796120000000     0.390270000000     0.0376553  
H343     H      0.030550000000     0.023610000000     0.212310000000     0.0457039  
H344     H      0.080420000000     0.995310000000     0.313440000000     0.0395756  
H345     H      0.079480000000     0.922010000000     0.238800000000     0.0593448  
H346     H      0.952650000000     0.026790000000     0.258440000000     0.0511654  
H347     H      0.118670000000     0.985010000000     0.300170000000     0.0567672  
H348     H      0.990460000000     0.965150000000     0.197600000000     0.0381661  
H349     H      0.990970000000     0.038940000000     0.271860000000     0.0404961  
H350     H      0.958770000000     0.992330000000     0.169150000000     0.0494321  
H351     H      0.111920000000     0.894230000000     0.266050000000     0.0339611  
H352     H      0.068060000000     0.006820000000     0.228180000000     0.0568511  
H353     H      0.112960000000     0.968330000000     0.340460000000     0.0471575  
H354     H      0.003320000000     0.954540000000     0.282280000000     0.0489713  
H355     H      0.075610000000     0.953180000000     0.324820000000     0.0371     
H356     H      0.959320000000     0.067360000000     0.244390000000     0.0528679  
H357     H      0.996560000000     0.006690000000     0.185330000000     0.0418995  
H358     H      0.996890000000     0.050620000000     0.229550000000     0.0417592  
H359     H      0.040870000000     0.937740000000     0.298130000000     0.0423794  
H360     H      0.075180000000     0.910830000000     0.281500000000     0.0428028  
H361     H      0.952350000000     0.979060000000     0.210570000000     0.0456423  
H362     H      0.292370000000     0.688460000000     0.199320000000     0.0429625  
H363     H      0.242960000000     0.718400000000     0.300240000000     0.0401501  
H364     H      0.243880000000     0.791170000000     0.224920000000     0.0596983  
H365     H      0.370010000000     0.684660000000     0.247510000000     0.0462116  
H366     H      0.204850000000     0.732230000000     0.287950000000     0.0644143  
H367     H      0.332250000000     0.745830000000     0.183360000000     0.0369047  
H368     H      0.331530000000     0.672700000000     0.258150000000     0.0391791  
H369     H      0.364560000000     0.718780000000     0.156090000000     0.047571   
H370     H      0.213180000000     0.821270000000     0.253680000000     0.0358829  
H371     H      0.255030000000     0.706210000000     0.215330000000     0.0554528  
H372     H      0.211780000000     0.746630000000     0.328700000000     0.0511336  
H373     H      0.320470000000     0.757800000000     0.268190000000     0.0484023  
H374     H      0.249350000000     0.760100000000     0.311590000000     0.0388849  
H375     H      0.363810000000     0.644740000000     0.231330000000     0.052049   
H376     H      0.327090000000     0.703790000000     0.171920000000     0.037947   
H377     H      0.326630000000     0.661180000000     0.215510000000     0.0380703  
H378     H      0.283230000000     0.775550000000     0.284180000000     0.0430403  
H379     H      0.249960000000     0.802920000000     0.266980000000     0.0447381  
H380     H      0.370450000000     0.734650000000     0.196710000000     0.0432011  
H381     H      0.322810000000     0.966300000000     0.474070000000     0.0500833  
H382     H      0.245660000000     0.006420000000     0.440950000000     0.0394101  
H383     H      0.245970000000     0.932930000000     0.515530000000     0.0596555  
H384     H      0.372280000000     0.038700000000     0.497220000000     0.0538945  
H385     H      0.207400000000     0.993160000000     0.452460000000     0.05647    
H386     H      0.334150000000     0.976600000000     0.559420000000     0.0373781  
H387     H      0.333900000000     0.050990000000     0.485890000000     0.0402956  
H388     H      0.366160000000     0.003410000000     0.587840000000     0.0482639  
H389     H      0.215150000000     0.903590000000     0.486400000000     0.0348376  
H390     H      0.285640000000     0.949240000000     0.456920000000     0.0433464  
H391     H      0.214490000000     0.978520000000     0.411850000000     0.0476208  
H392     H      0.294330000000     0.034330000000     0.543940000000     0.0429492  
H393     H      0.251870000000     0.964730000000     0.429360000000     0.0389538  
H394     H      0.365940000000     0.078510000000     0.513530000000     0.0553753  
H395     H      0.328760000000     0.018380000000     0.571560000000     0.0377987  
H396     H      0.328630000000     0.061840000000     0.528610000000     0.038089   
H397     H      0.257090000000     0.017290000000     0.526750000000     0.0547503  
H398     H      0.252030000000     0.921630000000     0.473330000000     0.0448194  
H399     H      0.372450000000     0.988360000000     0.547010000000     0.0473022  
H400     H      0.254530000000     0.708000000000     0.527520000000     0.0491712  
H401     H      0.331760000000     0.745030000000     0.562710000000     0.0381223  
H402     H      0.330950000000     0.670850000000     0.489020000000     0.0593771  
H403     H      0.206360000000     0.782940000000     0.502170000000     0.0456751  
H404     H      0.370080000000     0.733080000000     0.551880000000     0.0544624  
H405     H      0.244000000000     0.719330000000     0.441740000000     0.038363   
H406     H      0.244780000000     0.793050000000     0.515950000000     0.0395982  
H407     H      0.213300000000     0.748110000000     0.412140000000     0.0493239  
H408     H      0.362250000000     0.642020000000     0.518320000000     0.033493   
H409     H      0.291230000000     0.689340000000     0.545590000000     0.0426483  
H410     H      0.363080000000     0.716680000000     0.591790000000     0.0460056  
H411     H      0.285080000000     0.775040000000     0.458660000000     0.0436682  
H412     H      0.325820000000     0.703280000000     0.574240000000     0.0368315  
H413     H      0.214080000000     0.822750000000     0.487220000000     0.051612   
H414     H      0.250900000000     0.760730000000     0.430050000000     0.0398227  
H415     H      0.251360000000     0.804110000000     0.473720000000     0.0398227  
H416     H      0.321760000000     0.756360000000     0.476710000000     0.0548231  
H417     H      0.325530000000     0.660540000000     0.531630000000     0.0429971  
H418     H      0.205860000000     0.733880000000     0.452820000000     0.0440918  
H419     H      0.045210000000     0.941510000000     0.451590000000     0.0427627  
H420     H      0.996870000000     0.970740000000     0.554230000000     0.0392509  
H421     H      0.996010000000     0.043100000000     0.478560000000     0.0647776  
H422     H      0.123650000000     0.940470000000     0.497110000000     0.0528266  
H423     H      0.958390000000     0.982730000000     0.542960000000     0.0550956  
H424     H      0.084390000000     0.999500000000     0.433730000000     0.0388015  
H425     H      0.085500000000     0.927380000000     0.509530000000     0.0392015  
H426     H      0.116520000000     0.972620000000     0.405630000000     0.0489924  
H427     H      0.965000000000     0.072150000000     0.507720000000     0.0467234  
H428     H      0.007910000000     0.958250000000     0.468850000000     0.0543487  
H429     H      0.965490000000     0.998290000000     0.583210000000     0.0479507  
H430     H      0.073460000000     0.011980000000     0.519120000000     0.0520534  
H431     H      0.002630000000     0.012760000000     0.565020000000     0.0434418  
H432     H      0.117760000000     0.899940000000     0.482400000000     0.0515814  
H433     H      0.079360000000     0.957260000000     0.422980000000     0.0381076  
H434     H      0.080070000000     0.915090000000     0.467270000000     0.037269   
H435     H      0.036230000000     0.028690000000     0.536400000000     0.0496092  
H436     H      0.002130000000     0.055040000000     0.520530000000     0.0620749  
H437     H      0.122920000000     0.988980000000     0.445880000000     0.0479709  
H438     H      0.280020000000     0.951690000000     0.281190000000     0.0437662  
H439     H      0.330280000000     0.979800000000     0.180350000000     0.0381677  
H440     H      0.329240000000     0.052900000000     0.255200000000     0.0592618  
H441     H      0.202240000000     0.948800000000     0.234880000000     0.0530351  
H442     H      0.368500000000     0.989980000000     0.193970000000     0.0550141  
H443     H      0.240000000000     0.010590000000     0.295410000000     0.0389562  
H444     H      0.240550000000     0.936440000000     0.221480000000     0.0407953  
H445     H      0.208240000000     0.983640000000     0.323860000000     0.0499063  
H446     H      0.361800000000     0.080640000000     0.228300000000     0.0331204  
H447     H      0.317610000000     0.968280000000     0.265590000000     0.0548944  
H448     H      0.362950000000     0.006680000000     0.153640000000     0.0463867  
H449     H      0.253170000000     0.020840000000     0.210970000000     0.050243   
H450     H      0.325580000000     0.021980000000     0.169030000000     0.0369884  
H451     H      0.208830000000     0.908210000000     0.248970000000     0.0554765  
H452     H      0.246070000000     0.969110000000     0.307950000000     0.0403155  
H453     H      0.246430000000     0.924880000000     0.263840000000     0.0402853  
H454     H      0.290800000000     0.037460000000     0.195400000000     0.0427034  
H455     H      0.325080000000     0.064250000000     0.212510000000     0.0430577  
H456     H      0.201920000000     0.996540000000     0.282280000000     0.0476416  
H457     H      0.006640000000     0.765300000000     0.780060000000     0.0474484  
H458     H      0.081980000000     0.802310000000     0.735990000000     0.0409066  
H459     H      0.084830000000     0.726280000000     0.807690000000     0.0592064  
H460     H      0.955330000000     0.741850000000     0.708540000000     0.0418885  
H461     H      0.120810000000     0.791490000000     0.744850000000     0.0655033  
H462     H      0.995750000000     0.681230000000     0.767240000000     0.0392027  
H463     H      0.993110000000     0.756520000000     0.694700000000     0.0375222  
H464     H      0.964010000000     0.652510000000     0.740160000000     0.0500646  
H465     H      0.116940000000     0.754090000000     0.835340000000     0.0342799  
H466     H      0.044050000000     0.782980000000     0.795620000000     0.0419958  
H467     H      0.114130000000     0.830380000000     0.762920000000     0.053338   
H468     H      0.034230000000     0.699830000000     0.706940000000     0.0460854  
H469     H      0.077520000000     0.811880000000     0.779210000000     0.0368519  
H470     H      0.961290000000     0.729000000000     0.666840000000     0.048849   
H471     H      0.001010000000     0.670840000000     0.724390000000     0.0420358  
H472     H      0.999390000000     0.715330000000     0.681510000000     0.0419013  
H473     H      0.071620000000     0.717560000000     0.722450000000     0.0576369  
H474     H      0.079340000000     0.767560000000     0.820860000000     0.0424368  
H475     H      0.957040000000     0.692290000000     0.756060000000     0.043861   
H476     H      0.077400000000     0.737010000000     0.000250000000     0.0458993  
H477     H      0.002470000000     0.747910000000     0.061930000000     0.0385754  
H478     H      0.002730000000     0.675530000000     0.986460000000     0.0612789  
H479     H      0.086700000000     0.845610000000     0.941020000000     0.0380239  
H480     H      0.990630000000     0.699270000000     0.089990000000     0.051552   
H481     H      0.072300000000     0.746840000000     0.915960000000     0.037882   
H482     H      0.072740000000     0.819890000000     0.990880000000     0.0371304  
H483     H      0.108500000000     0.767170000000     0.894400000000     0.0505164  
H484     H      0.967140000000     0.652370000000     0.009570000000     0.0381232  
H485     H      0.049380000000     0.705880000000     0.030920000000     0.0559402  
H486     H      0.966830000000     0.724790000000     0.084420000000     0.0465351  
H487     H      0.025890000000     0.788590000000     0.947750000000     0.0468198  
H488     H      0.980210000000     0.745930000000     0.032200000000     0.0410314  
H489     H      0.109030000000     0.840840000000     0.969990000000     0.0490895  
H490     H      0.094100000000     0.746570000000     0.946560000000     0.0429098  
H491     H      0.094360000000     0.789440000000     0.990540000000     0.0425678  
H492     H      0.997830000000     0.757360000000     0.978500000000     0.0452278  
H493     H      0.980280000000     0.704200000000     0.989440000000     0.0496861  
H494     H      0.086330000000     0.796120000000     0.890270000000     0.0376553  
H495     H      0.030550000000     0.023610000000     0.712310000000     0.0457039  
H496     H      0.080420000000     0.995310000000     0.813440000000     0.0395759  
H497     H      0.079480000000     0.922010000000     0.738810000000     0.0593701  
H498     H      0.952650000000     0.026790000000     0.758440000000     0.0511643  
H499     H      0.118670000000     0.985010000000     0.800170000000     0.056767   
H500     H      0.990460000000     0.965150000000     0.697600000000     0.0381678  
H501     H      0.990970000000     0.038940000000     0.771860000000     0.0404962  
H502     H      0.958770000000     0.992330000000     0.669150000000     0.0494302  
H503     H      0.111920000000     0.894230000000     0.766050000000     0.0339572  
H504     H      0.068060000000     0.006820000000     0.728180000000     0.0568511  
H505     H      0.112960000000     0.968330000000     0.840460000000     0.0471573  
H506     H      0.003320000000     0.954540000000     0.782280000000     0.0489711  
H507     H      0.075610000000     0.953180000000     0.824820000000     0.0371006  
H508     H      0.959320000000     0.067360000000     0.744390000000     0.0528682  
H509     H      0.996560000000     0.006690000000     0.685330000000     0.0419009  
H510     H      0.996890000000     0.050620000000     0.729550000000     0.0417592  
H511     H      0.040870000000     0.937740000000     0.798130000000     0.0423791  
H512     H      0.075180000000     0.910830000000     0.781500000000     0.0428142  
H513     H      0.952350000000     0.979060000000     0.710580000000     0.0456388  
H514     H      0.292370000000     0.688460000000     0.699320000000     0.0429628  
H515     H      0.242960000000     0.718400000000     0.800240000000     0.0401503  
H516     H      0.243880000000     0.791170000000     0.724920000000     0.0596992  
H517     H      0.370010000000     0.684660000000     0.747510000000     0.0462125  
H518     H      0.204850000000     0.732230000000     0.787950000000     0.064417   
H519     H      0.332250000000     0.745830000000     0.683360000000     0.0368739  
H520     H      0.331530000000     0.672700000000     0.758150000000     0.039179   
H521     H      0.364560000000     0.718780000000     0.656090000000     0.0475801  
H522     H      0.213180000000     0.821270000000     0.753680000000     0.0358756  
H523     H      0.255030000000     0.706210000000     0.715330000000     0.0554524  
H524     H      0.211780000000     0.746630000000     0.828700000000     0.0511336  
H525     H      0.320470000000     0.757800000000     0.768190000000     0.0484025  
H526     H      0.249350000000     0.760100000000     0.811590000000     0.0388849  
H527     H      0.363810000000     0.644740000000     0.731330000000     0.0520499  
H528     H      0.327090000000     0.703790000000     0.671920000000     0.0379133  
H529     H      0.326630000000     0.661180000000     0.715510000000     0.0380692  
H530     H      0.283230000000     0.775550000000     0.784180000000     0.0430401  
H531     H      0.249960000000     0.802920000000     0.766980000000     0.0447399  
H532     H      0.370450000000     0.734650000000     0.696710000000     0.0432106  
H533     H      0.322810000000     0.966300000000     0.974070000000     0.0500825  
H534     H      0.245660000000     0.006420000000     0.940950000000     0.0394104  
H535     H      0.245970000000     0.932930000000     0.015530000000     0.0596528  
H536     H      0.372280000000     0.038700000000     0.997220000000     0.0538983  
H537     H      0.207400000000     0.993160000000     0.952460000000     0.0564705  
H538     H      0.334150000000     0.976600000000     0.059420000000     0.0373771  
H539     H      0.333900000000     0.050990000000     0.985890000000     0.0402977  
H540     H      0.366160000000     0.003410000000     0.087840000000     0.0482665  
H541     H      0.215150000000     0.903590000000     0.986400000000     0.034838   
H542     H      0.285640000000     0.949240000000     0.956920000000     0.0433473  
H543     H      0.214490000000     0.978520000000     0.911850000000     0.0476209  
H544     H      0.294330000000     0.034330000000     0.043940000000     0.0429484  
H545     H      0.251870000000     0.964730000000     0.929360000000     0.0389537  
H546     H      0.365940000000     0.078510000000     0.013530000000     0.055378   
H547     H      0.328760000000     0.018380000000     0.071560000000     0.0377988  
H548     H      0.328630000000     0.061840000000     0.028610000000     0.0380896  
H549     H      0.257090000000     0.017290000000     0.026750000000     0.054751   
H550     H      0.252030000000     0.921630000000     0.973330000000     0.0448189  
H551     H      0.372450000000     0.988360000000     0.047010000000     0.0473023  
H552     H      0.254530000000     0.708000000000     0.027530000000     0.0491569  
H553     H      0.331760000000     0.745030000000     0.062710000000     0.0381164  
H554     H      0.330950000000     0.670850000000     0.989020000000     0.0593793  
H555     H      0.206360000000     0.782940000000     0.002170000000     0.0456724  
H556     H      0.370080000000     0.733080000000     0.051880000000     0.0544798  
H557     H      0.244000000000     0.719330000000     0.941740000000     0.0383639  
H558     H      0.244780000000     0.793050000000     0.015950000000     0.0395957  
H559     H      0.213300000000     0.748110000000     0.912140000000     0.049324   
H560     H      0.362250000000     0.642020000000     0.018320000000     0.0334928  
H561     H      0.291230000000     0.689340000000     0.045590000000     0.0426506  
H562     H      0.363080000000     0.716680000000     0.091790000000     0.0460257  
H563     H      0.285080000000     0.775040000000     0.958660000000     0.0436678  
H564     H      0.325820000000     0.703280000000     0.074240000000     0.0368265  
H565     H      0.214080000000     0.822750000000     0.987220000000     0.051612   
H566     H      0.250900000000     0.760730000000     0.930050000000     0.0398227  
H567     H      0.251360000000     0.804110000000     0.973720000000     0.0398225  
H568     H      0.321760000000     0.756360000000     0.976710000000     0.0548235  
H569     H      0.325530000000     0.660540000000     0.031630000000     0.0429975  
H570     H      0.205860000000     0.733880000000     0.952820000000     0.0440926  
H571     H      0.045210000000     0.941510000000     0.951590000000     0.0427635  
H572     H      0.996870000000     0.970740000000     0.054230000000     0.0392195  
H573     H      0.996010000000     0.043100000000     0.978560000000     0.0647801  
H574     H      0.123650000000     0.940470000000     0.997110000000     0.0528275  
H575     H      0.958390000000     0.982730000000     0.042960000000     0.0551032  
H576     H      0.084390000000     0.999500000000     0.933730000000     0.0388018  
H577     H      0.085500000000     0.927380000000     0.009530000000     0.0391983  
H578     H      0.116520000000     0.972620000000     0.905630000000     0.0489925  
H579     H      0.965000000000     0.072150000000     0.007720000000     0.0467233  
H580     H      0.007910000000     0.958250000000     0.968850000000     0.0543479  
H581     H      0.965490000000     0.998290000000     0.083210000000     0.047959   
H582     H      0.073460000000     0.011980000000     0.019120000000     0.0520539  
H583     H      0.002630000000     0.012760000000     0.065020000000     0.0434085  
H584     H      0.117760000000     0.899940000000     0.982400000000     0.0515821  
H585     H      0.079360000000     0.957260000000     0.922980000000     0.0381075  
H586     H      0.080070000000     0.915090000000     0.967270000000     0.0372684  
H587     H      0.036230000000     0.028690000000     0.036400000000     0.0496086  
H588     H      0.002130000000     0.055040000000     0.020530000000     0.0620745  
H589     H      0.122920000000     0.988980000000     0.945880000000     0.0479713  
H590     H      0.280020000000     0.951690000000     0.781190000000     0.0437662  
H591     H      0.330280000000     0.979800000000     0.680350000000     0.0381622  
H592     H      0.329240000000     0.052900000000     0.755200000000     0.0592621  
H593     H      0.202240000000     0.948800000000     0.734880000000     0.0530351  
H594     H      0.368500000000     0.989980000000     0.693970000000     0.0550322  
H595     H      0.240000000000     0.010590000000     0.795410000000     0.0389562  
H596     H      0.240550000000     0.936440000000     0.721480000000     0.0407952  
H597     H      0.208240000000     0.983640000000     0.823860000000     0.0499064  
H598     H      0.361800000000     0.080640000000     0.728290000000     0.0331187  
H599     H      0.317610000000     0.968280000000     0.765590000000     0.0548945  
H600     H      0.362950000000     0.006680000000     0.653640000000     0.0464046  
H601     H      0.253170000000     0.020840000000     0.710970000000     0.0502429  
H602     H      0.325580000000     0.021980000000     0.669030000000     0.0369828  
H603     H      0.208830000000     0.908210000000     0.748970000000     0.0554765  
H604     H      0.246070000000     0.969110000000     0.807950000000     0.0403155  
H605     H      0.246430000000     0.924880000000     0.763840000000     0.0402852  
H606     H      0.290800000000     0.037460000000     0.695400000000     0.0427033  
H607     H      0.325080000000     0.064250000000     0.712510000000     0.043057   
H608     H      0.201920000000     0.996540000000     0.782280000000     0.0476416  
H609     H      0.506640000000     0.265300000000     0.280060000000     0.0474693  
H610     H      0.581980000000     0.302310000000     0.235990000000     0.0409056  
H611     H      0.584830000000     0.226280000000     0.307690000000     0.0592082  
H612     H      0.455330000000     0.241850000000     0.208540000000     0.0418854  
H613     H      0.620800000000     0.291490000000     0.244850000000     0.0655088  
H614     H      0.495750000000     0.181230000000     0.267240000000     0.0392022  
H615     H      0.493110000000     0.256520000000     0.194710000000     0.0375192  
H616     H      0.464010000000     0.152510000000     0.240160000000     0.0500577  
H617     H      0.616940000000     0.254090000000     0.335340000000     0.0342805  
H618     H      0.544050000000     0.282980000000     0.295620000000     0.0420185  
H619     H      0.614130000000     0.330380000000     0.262920000000     0.0533478  
H620     H      0.534230000000     0.199830000000     0.206940000000     0.0460955  
H621     H      0.577520000000     0.311880000000     0.279210000000     0.0368528  
H622     H      0.461290000000     0.229000000000     0.166840000000     0.0488474  
H623     H      0.501010000000     0.170840000000     0.224400000000     0.0420894  
H624     H      0.499390000000     0.215330000000     0.181510000000     0.041893   
H625     H      0.571620000000     0.217560000000     0.222450000000     0.0576437  
H626     H      0.579340000000     0.267560000000     0.320860000000     0.0424385  
H627     H      0.457040000000     0.192290000000     0.256060000000     0.0438552  
H628     H      0.577400000000     0.237010000000     0.500250000000     0.0459073  
H629     H      0.502470000000     0.247910000000     0.561930000000     0.0386242  
H630     H      0.502730000000     0.175530000000     0.486460000000     0.0613242  
H631     H      0.586700000000     0.345610000000     0.441020000000     0.0380251  
H632     H      0.490630000000     0.199270000000     0.589990000000     0.0515349  
H633     H      0.572300000000     0.246840000000     0.415960000000     0.0378845  
H634     H      0.572740000000     0.319890000000     0.490880000000     0.0371324  
H635     H      0.608500000000     0.267170000000     0.394400000000     0.0505168  
H636     H      0.467140000000     0.152370000000     0.509570000000     0.0381156  
H637     H      0.549380000000     0.205880000000     0.530920000000     0.0559418  
H638     H      0.466830000000     0.224790000000     0.584420000000     0.0465244  
H639     H      0.525890000000     0.288590000000     0.447750000000     0.0468354  
H640     H      0.480210000000     0.245930000000     0.532200000000     0.0410435  
H641     H      0.609030000000     0.340840000000     0.469990000000     0.0490896  
H642     H      0.594100000000     0.246570000000     0.446560000000     0.0429101  
H643     H      0.594360000000     0.289440000000     0.490540000000     0.0425677  
H644     H      0.497830000000     0.257360000000     0.478500000000     0.0451808  
H645     H      0.480280000000     0.204200000000     0.489440000000     0.0496933  
H646     H      0.586330000000     0.296120000000     0.390270000000     0.0376565  
H647     H      0.530550000000     0.523610000000     0.212310000000     0.0457377  
H648     H      0.580420000000     0.495310000000     0.313440000000     0.0395998  
H649     H      0.579480000000     0.422010000000     0.238800000000     0.0593616  
H650     H      0.452650000000     0.526790000000     0.258440000000     0.0511585  
H651     H      0.618670000000     0.485010000000     0.300170000000     0.0567686  
H652     H      0.490460000000     0.465150000000     0.197600000000     0.0381495  
H653     H      0.490970000000     0.538950000000     0.271860000000     0.0404703  
H654     H      0.458770000000     0.492330000000     0.169150000000     0.0494349  
H655     H      0.611920000000     0.394230000000     0.266050000000     0.0339653  
H656     H      0.568060000000     0.506820000000     0.228180000000     0.0568149  
H657     H      0.612960000000     0.468330000000     0.340460000000     0.047158   
H658     H      0.503320000000     0.454540000000     0.282280000000     0.0489968  
H659     H      0.575610000000     0.453180000000     0.324820000000     0.0371224  
H660     H      0.459320000000     0.567360000000     0.244390000000     0.0528651  
H661     H      0.496560000000     0.506690000000     0.185330000000     0.0418667  
H662     H      0.496890000000     0.550620000000     0.229550000000     0.0417421  
H663     H      0.540870000000     0.437740000000     0.298130000000     0.0423816  
H664     H      0.575180000000     0.410830000000     0.281500000000     0.0428227  
H665     H      0.452350000000     0.479060000000     0.210570000000     0.0456426  
H666     H      0.792370000000     0.188460000000     0.199320000000     0.0429588  
H667     H      0.742960000000     0.218400000000     0.300240000000     0.040151   
H668     H      0.743880000000     0.291170000000     0.224920000000     0.0597058  
H669     H      0.870010000000     0.184660000000     0.247510000000     0.0462058  
H670     H      0.704850000000     0.232230000000     0.287950000000     0.0644131  
H671     H      0.832250000000     0.245830000000     0.183360000000     0.0369038  
H672     H      0.831530000000     0.172700000000     0.258150000000     0.0391782  
H673     H      0.864560000000     0.218780000000     0.156090000000     0.0475697  
H674     H      0.713180000000     0.321270000000     0.253680000000     0.0358899  
H675     H      0.755030000000     0.206220000000     0.215330000000     0.0554707  
H676     H      0.711780000000     0.246630000000     0.328700000000     0.0511341  
H677     H      0.820470000000     0.257800000000     0.268190000000     0.0484014  
H678     H      0.749350000000     0.260100000000     0.311590000000     0.0388854  
H679     H      0.863810000000     0.144740000000     0.231330000000     0.0520441  
H680     H      0.827090000000     0.203790000000     0.171920000000     0.0379479  
H681     H      0.826630000000     0.161180000000     0.215510000000     0.0380709  
H682     H      0.783230000000     0.275550000000     0.284180000000     0.0430419  
H683     H      0.749960000000     0.302920000000     0.266980000000     0.0447475  
H684     H      0.870450000000     0.234650000000     0.196710000000     0.0431963  
H685     H      0.822810000000     0.466310000000     0.474070000000     0.0500961  
H686     H      0.745660000000     0.506420000000     0.440950000000     0.0393866  
H687     H      0.745970000000     0.432930000000     0.515530000000     0.0596569  
H688     H      0.872280000000     0.538700000000     0.497220000000     0.0539022  
H689     H      0.707400000000     0.493160000000     0.452460000000     0.0564765  
H690     H      0.834150000000     0.476600000000     0.559420000000     0.0373979  
H691     H      0.833900000000     0.550990000000     0.485890000000     0.0402911  
H692     H      0.866160000000     0.503400000000     0.587840000000     0.0482532  
H693     H      0.715150000000     0.403590000000     0.486400000000     0.0348376  
H694     H      0.785640000000     0.449240000000     0.456920000000     0.0433486  
H695     H      0.714490000000     0.478520000000     0.411850000000     0.0476282  
H696     H      0.794330000000     0.534330000000     0.543940000000     0.0429375  
H697     H      0.751870000000     0.464730000000     0.429360000000     0.0389506  
H698     H      0.865940000000     0.578510000000     0.513530000000     0.0553802  
H699     H      0.828760000000     0.518380000000     0.571560000000     0.0377998  
H700     H      0.828630000000     0.561840000000     0.528610000000     0.0380844  
H701     H      0.757090000000     0.517290000000     0.526750000000     0.0547532  
H702     H      0.752030000000     0.421630000000     0.473330000000     0.0448191  
H703     H      0.872450000000     0.488360000000     0.547010000000     0.0473255  
H704     H      0.754530000000     0.208010000000     0.527520000000     0.049184   
H705     H      0.831760000000     0.245030000000     0.562710000000     0.0381222  
H706     H      0.830950000000     0.170850000000     0.489020000000     0.0593782  
H707     H      0.706360000000     0.282940000000     0.502170000000     0.0456747  
H708     H      0.870080000000     0.233080000000     0.551880000000     0.054463   
H709     H      0.744000000000     0.219330000000     0.441740000000     0.0383639  
H710     H      0.744780000000     0.293050000000     0.515950000000     0.0395965  
H711     H      0.713300000000     0.248110000000     0.412140000000     0.0493242  
H712     H      0.862250000000     0.142020000000     0.518320000000     0.0334929  
H713     H      0.791230000000     0.189340000000     0.545590000000     0.0426452  
H714     H      0.863080000000     0.216680000000     0.591790000000     0.0460055  
H715     H      0.785080000000     0.275040000000     0.458660000000     0.0436756  
H716     H      0.825820000000     0.203280000000     0.574240000000     0.0368316  
H717     H      0.714080000000     0.322750000000     0.487220000000     0.0516117  
H718     H      0.750900000000     0.260730000000     0.430050000000     0.0398222  
H719     H      0.751360000000     0.304110000000     0.473720000000     0.0398221  
H720     H      0.821760000000     0.256370000000     0.476710000000     0.054804   
H721     H      0.825530000000     0.160540000000     0.531630000000     0.0429975  
H722     H      0.705860000000     0.233880000000     0.452820000000     0.0440925  
H723     H      0.545210000000     0.441510000000     0.451590000000     0.0427646  
H724     H      0.496870000000     0.470740000000     0.554230000000     0.0392335  
H725     H      0.496010000000     0.543100000000     0.478560000000     0.0647729  
H726     H      0.623660000000     0.440470000000     0.497110000000     0.0528199  
H727     H      0.458390000000     0.482730000000     0.542960000000     0.0551203  
H728     H      0.584390000000     0.499500000000     0.433730000000     0.0388086  
H729     H      0.585500000000     0.427380000000     0.509530000000     0.0392082  
H730     H      0.616520000000     0.472620000000     0.405630000000     0.0489935  
H731     H      0.465000000000     0.572150000000     0.507720000000     0.0467169  
H732     H      0.507910000000     0.458250000000     0.468850000000     0.0543706  
H733     H      0.465490000000     0.498290000000     0.583210000000     0.047977   
H734     H      0.573460000000     0.511980000000     0.519120000000     0.0520507  
H735     H      0.502630000000     0.512760000000     0.565020000000     0.043454   
H736     H      0.617760000000     0.399940000000     0.482400000000     0.0515729  
H737     H      0.579360000000     0.457260000000     0.422980000000     0.0381098  
H738     H      0.580070000000     0.415090000000     0.467270000000     0.0372713  
H739     H      0.536230000000     0.528690000000     0.536400000000     0.0496229  
H740     H      0.502130000000     0.555040000000     0.520530000000     0.0621175  
H741     H      0.622920000000     0.488980000000     0.445880000000     0.0479739  
H742     H      0.780020000000     0.451690000000     0.281190000000     0.0437739  
H743     H      0.830280000000     0.479800000000     0.180350000000     0.0381874  
H744     H      0.829240000000     0.552900000000     0.255200000000     0.0592769  
H745     H      0.702240000000     0.448800000000     0.234880000000     0.0530356  
H746     H      0.868500000000     0.489980000000     0.193970000000     0.0550373  
H747     H      0.740000000000     0.510580000000     0.295410000000     0.0389522  
H748     H      0.740550000000     0.436440000000     0.221480000000     0.0407969  
H749     H      0.708240000000     0.483640000000     0.323860000000     0.049915   
H750     H      0.861800000000     0.580630000000     0.228300000000     0.0331279  
H751     H      0.817610000000     0.468280000000     0.265590000000     0.0548896  
H752     H      0.862950000000     0.506680000000     0.153640000000     0.0463874  
H753     H      0.753170000000     0.520840000000     0.210970000000     0.0502467  
H754     H      0.825580000000     0.521980000000     0.169030000000     0.0369892  
H755     H      0.708830000000     0.408210000000     0.248970000000     0.0554762  
H756     H      0.746070000000     0.469110000000     0.307950000000     0.040323   
H757     H      0.746430000000     0.424880000000     0.263840000000     0.0402862  
H758     H      0.790800000000     0.537460000000     0.195400000000     0.042694   
H759     H      0.825080000000     0.564240000000     0.212510000000     0.0430889  
H760     H      0.701920000000     0.496540000000     0.282280000000     0.0476426  
H761     H      0.506640000000     0.265300000000     0.780060000000     0.0474698  
H762     H      0.581980000000     0.302310000000     0.735990000000     0.0409056  
H763     H      0.584830000000     0.226280000000     0.807690000000     0.0592083  
H764     H      0.455330000000     0.241850000000     0.708540000000     0.0418861  
H765     H      0.620800000000     0.291490000000     0.744850000000     0.065509   
H766     H      0.495750000000     0.181230000000     0.767240000000     0.0391991  
H767     H      0.493110000000     0.256520000000     0.694700000000     0.03751    
H768     H      0.464010000000     0.152510000000     0.740160000000     0.0500568  
H769     H      0.616940000000     0.254090000000     0.835340000000     0.0342806  
H770     H      0.544050000000     0.282980000000     0.795620000000     0.0420185  
H771     H      0.614130000000     0.330380000000     0.762920000000     0.0533479  
H772     H      0.534230000000     0.199830000000     0.706940000000     0.0460949  
H773     H      0.577520000000     0.311880000000     0.779210000000     0.0368527  
H774     H      0.461290000000     0.229000000000     0.666840000000     0.0488466  
H775     H      0.501010000000     0.170840000000     0.724390000000     0.0420804  
H776     H      0.499390000000     0.215330000000     0.681510000000     0.0418875  
H777     H      0.571620000000     0.217560000000     0.722450000000     0.0576435  
H778     H      0.579340000000     0.267560000000     0.820860000000     0.0424385  
H779     H      0.457040000000     0.192290000000     0.756060000000     0.0438556  
H780     H      0.577400000000     0.237010000000     0.000250000000     0.0459031  
H781     H      0.502470000000     0.247910000000     0.061930000000     0.0386241  
H782     H      0.502730000000     0.175530000000     0.986460000000     0.0613278  
H783     H      0.586700000000     0.345610000000     0.941020000000     0.0380251  
H784     H      0.490630000000     0.199270000000     0.089990000000     0.0515362  
H785     H      0.572300000000     0.246840000000     0.915960000000     0.0378847  
H786     H      0.572740000000     0.319890000000     0.990880000000     0.0371329  
H787     H      0.608500000000     0.267170000000     0.894400000000     0.0505169  
H788     H      0.467140000000     0.152370000000     0.009570000000     0.0381142  
H789     H      0.549380000000     0.205880000000     0.030920000000     0.0559427  
H790     H      0.466830000000     0.224790000000     0.084420000000     0.0465255  
H791     H      0.525890000000     0.288590000000     0.947750000000     0.0468355  
H792     H      0.480210000000     0.245930000000     0.032200000000     0.0410426  
H793     H      0.609030000000     0.340840000000     0.969990000000     0.0490898  
H794     H      0.594100000000     0.246570000000     0.946560000000     0.0429106  
H795     H      0.594360000000     0.289440000000     0.990540000000     0.0425683  
H796     H      0.497830000000     0.257360000000     0.978500000000     0.0451807  
H797     H      0.480280000000     0.204200000000     0.989440000000     0.0496967  
H798     H      0.586330000000     0.296120000000     0.890270000000     0.0376565  
H799     H      0.530550000000     0.523610000000     0.712310000000     0.0457377  
H800     H      0.580420000000     0.495310000000     0.813440000000     0.0396     
H801     H      0.579480000000     0.422010000000     0.738810000000     0.0593869  
H802     H      0.452650000000     0.526790000000     0.758440000000     0.0511574  
H803     H      0.618670000000     0.485010000000     0.800170000000     0.0567684  
H804     H      0.490460000000     0.465150000000     0.697600000000     0.0381512  
H805     H      0.490970000000     0.538950000000     0.771860000000     0.0404704  
H806     H      0.458770000000     0.492330000000     0.669150000000     0.049433   
H807     H      0.611920000000     0.394230000000     0.766050000000     0.0339614  
H808     H      0.568060000000     0.506820000000     0.728180000000     0.0568149  
H809     H      0.612960000000     0.468330000000     0.840460000000     0.0471578  
H810     H      0.503320000000     0.454540000000     0.782280000000     0.0489966  
H811     H      0.575610000000     0.453180000000     0.824820000000     0.0371231  
H812     H      0.459320000000     0.567360000000     0.744390000000     0.0528653  
H813     H      0.496560000000     0.506690000000     0.685330000000     0.0418681  
H814     H      0.496890000000     0.550620000000     0.729550000000     0.0417421  
H815     H      0.540870000000     0.437740000000     0.798130000000     0.0423812  
H816     H      0.575180000000     0.410830000000     0.781500000000     0.0428341  
H817     H      0.452350000000     0.479060000000     0.710580000000     0.045639   
H818     H      0.792370000000     0.188460000000     0.699320000000     0.0429591  
H819     H      0.742960000000     0.218400000000     0.800240000000     0.0401513  
H820     H      0.743880000000     0.291170000000     0.724920000000     0.0597068  
H821     H      0.870010000000     0.184660000000     0.747510000000     0.0462067  
H822     H      0.704850000000     0.232230000000     0.787950000000     0.0644157  
H823     H      0.832250000000     0.245830000000     0.683360000000     0.0368729  
H824     H      0.831530000000     0.172700000000     0.758150000000     0.0391781  
H825     H      0.864560000000     0.218780000000     0.656090000000     0.0475788  
H826     H      0.713180000000     0.321270000000     0.753680000000     0.0358826  
H827     H      0.755030000000     0.206220000000     0.715330000000     0.0554703  
H828     H      0.711780000000     0.246630000000     0.828700000000     0.0511341  
H829     H      0.820470000000     0.257800000000     0.768190000000     0.0484015  
H830     H      0.749350000000     0.260100000000     0.811590000000     0.0388854  
H831     H      0.863810000000     0.144740000000     0.731330000000     0.052045   
H832     H      0.827090000000     0.203790000000     0.671920000000     0.0379142  
H833     H      0.826630000000     0.161180000000     0.715510000000     0.0380699  
H834     H      0.783230000000     0.275550000000     0.784180000000     0.0430418  
H835     H      0.749960000000     0.302920000000     0.766980000000     0.0447493  
H836     H      0.870450000000     0.234650000000     0.696710000000     0.0432057  
H837     H      0.822810000000     0.466310000000     0.974070000000     0.0500953  
H838     H      0.745660000000     0.506420000000     0.940950000000     0.0393869  
H839     H      0.745970000000     0.432930000000     0.015530000000     0.0596542  
H840     H      0.872280000000     0.538700000000     0.997220000000     0.0539061  
H841     H      0.707400000000     0.493160000000     0.952460000000     0.056477   
H842     H      0.834150000000     0.476600000000     0.059420000000     0.0373969  
H843     H      0.833900000000     0.550990000000     0.985890000000     0.0402932  
H844     H      0.866160000000     0.503400000000     0.087840000000     0.0482558  
H845     H      0.715150000000     0.403590000000     0.986400000000     0.034838   
H846     H      0.785640000000     0.449240000000     0.956920000000     0.0433495  
H847     H      0.714490000000     0.478520000000     0.911850000000     0.0476283  
H848     H      0.794330000000     0.534330000000     0.043940000000     0.0429367  
H849     H      0.751870000000     0.464730000000     0.929360000000     0.0389506  
H850     H      0.865940000000     0.578510000000     0.013530000000     0.0553829  
H851     H      0.828760000000     0.518380000000     0.071560000000     0.0377999  
H852     H      0.828630000000     0.561840000000     0.028610000000     0.0380851  
H853     H      0.757090000000     0.517290000000     0.026750000000     0.0547539  
H854     H      0.752030000000     0.421630000000     0.973330000000     0.0448187  
H855     H      0.872450000000     0.488360000000     0.047010000000     0.0473256  
H856     H      0.754530000000     0.208010000000     0.027530000000     0.0491696  
H857     H      0.831760000000     0.245030000000     0.062710000000     0.0381163  
H858     H      0.830950000000     0.170850000000     0.989020000000     0.0593805  
H859     H      0.706360000000     0.282940000000     0.002170000000     0.0456721  
H860     H      0.870080000000     0.233080000000     0.051880000000     0.0544804  
H861     H      0.744000000000     0.219330000000     0.941740000000     0.0383648  
H862     H      0.744780000000     0.293050000000     0.015950000000     0.039594   
H863     H      0.713300000000     0.248110000000     0.912140000000     0.0493243  
H864     H      0.862250000000     0.142020000000     0.018320000000     0.0334927  
H865     H      0.791230000000     0.189340000000     0.045590000000     0.0426475  
H866     H      0.863080000000     0.216680000000     0.091790000000     0.0460256  
H867     H      0.785080000000     0.275040000000     0.958660000000     0.0436752  
H868     H      0.825820000000     0.203280000000     0.074240000000     0.0368266  
H869     H      0.714080000000     0.322750000000     0.987220000000     0.0516118  
H870     H      0.750900000000     0.260730000000     0.930050000000     0.0398223  
H871     H      0.751360000000     0.304110000000     0.973720000000     0.0398219  
H872     H      0.821760000000     0.256370000000     0.976710000000     0.0548044  
H873     H      0.825530000000     0.160540000000     0.031630000000     0.042998   
H874     H      0.705860000000     0.233880000000     0.952820000000     0.0440932  
H875     H      0.545210000000     0.441510000000     0.951590000000     0.0427654  
H876     H      0.496870000000     0.470740000000     0.054230000000     0.0392021  
H877     H      0.496010000000     0.543100000000     0.978560000000     0.0647753  
H878     H      0.623660000000     0.440470000000     0.997110000000     0.0528208  
H879     H      0.458390000000     0.482730000000     0.042960000000     0.0551279  
H880     H      0.584390000000     0.499500000000     0.933730000000     0.0388089  
H881     H      0.585500000000     0.427380000000     0.009530000000     0.0392051  
H882     H      0.616520000000     0.472620000000     0.905630000000     0.0489936  
H883     H      0.465000000000     0.572150000000     0.007720000000     0.0467168  
H884     H      0.507910000000     0.458250000000     0.968850000000     0.0543698  
H885     H      0.465490000000     0.498290000000     0.083210000000     0.0479853  
H886     H      0.573460000000     0.511980000000     0.019120000000     0.0520511  
H887     H      0.502630000000     0.512760000000     0.065020000000     0.0434207  
H888     H      0.617760000000     0.399940000000     0.982400000000     0.0515735  
H889     H      0.579360000000     0.457260000000     0.922980000000     0.0381097  
H890     H      0.580070000000     0.415090000000     0.967270000000     0.0372707  
H891     H      0.536230000000     0.528690000000     0.036400000000     0.0496223  
H892     H      0.502130000000     0.555040000000     0.020530000000     0.0621171  
H893     H      0.622920000000     0.488980000000     0.945880000000     0.0479743  
H894     H      0.780020000000     0.451690000000     0.781190000000     0.0437739  
H895     H      0.830280000000     0.479800000000     0.680350000000     0.0381819  
H896     H      0.829240000000     0.552900000000     0.755200000000     0.0592772  
H897     H      0.702240000000     0.448800000000     0.734880000000     0.0530356  
H898     H      0.868500000000     0.489980000000     0.693970000000     0.0550554  
H899     H      0.740000000000     0.510580000000     0.795410000000     0.0389523  
H900     H      0.740550000000     0.436440000000     0.721480000000     0.0407968  
H901     H      0.708240000000     0.483640000000     0.823860000000     0.0499151  
H902     H      0.861800000000     0.580630000000     0.728290000000     0.0331262  
H903     H      0.817610000000     0.468280000000     0.765590000000     0.0548896  
H904     H      0.862950000000     0.506680000000     0.653640000000     0.0464053  
H905     H      0.753170000000     0.520840000000     0.710970000000     0.0502467  
H906     H      0.825580000000     0.521980000000     0.669030000000     0.0369836  
H907     H      0.708830000000     0.408210000000     0.748970000000     0.0554761  
H908     H      0.746070000000     0.469110000000     0.807950000000     0.040323   
H909     H      0.746430000000     0.424880000000     0.763840000000     0.0402861  
H910     H      0.790800000000     0.537460000000     0.695400000000     0.0426939  
H911     H      0.825080000000     0.564240000000     0.712510000000     0.0430882  
H912     H      0.701920000000     0.496540000000     0.782280000000     0.0476426  
H913     H      0.506640000000     0.765300000000     0.280060000000     0.0474626  
H914     H      0.581980000000     0.802310000000     0.235990000000     0.0409052  
H915     H      0.584830000000     0.726280000000     0.307690000000     0.0592077  
H916     H      0.455330000000     0.741850000000     0.208540000000     0.0418852  
H917     H      0.620800000000     0.791490000000     0.244850000000     0.0655085  
H918     H      0.495750000000     0.681230000000     0.267240000000     0.039202   
H919     H      0.493110000000     0.756520000000     0.194710000000     0.0375184  
H920     H      0.464010000000     0.652510000000     0.240160000000     0.0500574  
H921     H      0.616940000000     0.754090000000     0.335340000000     0.0342802  
H922     H      0.544050000000     0.782980000000     0.295620000000     0.0420199  
H923     H      0.614130000000     0.830380000000     0.262920000000     0.0533477  
H924     H      0.534230000000     0.699830000000     0.206940000000     0.0460958  
H925     H      0.577520000000     0.811880000000     0.279210000000     0.0368526  
H926     H      0.461290000000     0.729000000000     0.166840000000     0.0488473  
H927     H      0.501010000000     0.670840000000     0.224400000000     0.0420887  
H928     H      0.499390000000     0.715330000000     0.181510000000     0.0418926  
H929     H      0.571620000000     0.717560000000     0.222450000000     0.0576429  
H930     H      0.579340000000     0.767560000000     0.320860000000     0.0424385  
H931     H      0.457040000000     0.692290000000     0.256060000000     0.0438553  
H932     H      0.577400000000     0.737010000000     0.500250000000     0.0459069  
H933     H      0.502470000000     0.747910000000     0.561930000000     0.038624   
H934     H      0.502730000000     0.675530000000     0.486460000000     0.0613239  
H935     H      0.586700000000     0.845610000000     0.441020000000     0.038025   
H936     H      0.490630000000     0.699270000000     0.589990000000     0.0515347  
H937     H      0.572300000000     0.746840000000     0.415960000000     0.0378841  
H938     H      0.572740000000     0.819890000000     0.490880000000     0.0371322  
H939     H      0.608500000000     0.767170000000     0.394400000000     0.0505166  
H940     H      0.467140000000     0.652370000000     0.509570000000     0.0381163  
H941     H      0.549380000000     0.705880000000     0.530920000000     0.0559413  
H942     H      0.466830000000     0.724790000000     0.584420000000     0.0465243  
H943     H      0.525890000000     0.788590000000     0.447750000000     0.0468353  
H944     H      0.480210000000     0.745930000000     0.532200000000     0.0410434  
H945     H      0.609030000000     0.840840000000     0.469990000000     0.0490895  
H946     H      0.594100000000     0.746570000000     0.446560000000     0.0429096  
H947     H      0.594360000000     0.789440000000     0.490540000000     0.0425674  
H948     H      0.497830000000     0.757360000000     0.478500000000     0.0451807  
H949     H      0.480280000000     0.704200000000     0.489440000000     0.0496934  
H950     H      0.586330000000     0.796120000000     0.390270000000     0.0376565  
H951     H      0.530550000000     0.023610000000     0.212310000000     0.0457218  
H952     H      0.580420000000     0.995310000000     0.313440000000     0.0395949  
H953     H      0.579480000000     0.922010000000     0.238800000000     0.0593601  
H954     H      0.452650000000     0.026790000000     0.258440000000     0.0511627  
H955     H      0.618670000000     0.985010000000     0.300170000000     0.0567651  
H956     H      0.490460000000     0.965150000000     0.197600000000     0.0381527  
H957     H      0.490970000000     0.038940000000     0.271860000000     0.0404827  
H958     H      0.458770000000     0.992330000000     0.169150000000     0.0494294  
H959     H      0.611920000000     0.894230000000     0.266050000000     0.0339652  
H960     H      0.568060000000     0.006820000000     0.228180000000     0.0568508  
H961     H      0.612960000000     0.968330000000     0.340460000000     0.0471564  
H962     H      0.503320000000     0.954540000000     0.282280000000     0.0489876  
H963     H      0.575610000000     0.953180000000     0.324820000000     0.0371211  
H964     H      0.459320000000     0.067360000000     0.244390000000     0.0528654  
H965     H      0.496560000000     0.006690000000     0.185330000000     0.0418866  
H966     H      0.496890000000     0.050620000000     0.229550000000     0.0417462  
H967     H      0.540870000000     0.937740000000     0.298130000000     0.0423864  
H968     H      0.575180000000     0.910830000000     0.281500000000     0.0428223  
H969     H      0.452350000000     0.979060000000     0.210570000000     0.0456394  
H970     H      0.792370000000     0.688460000000     0.199320000000     0.0429623  
H971     H      0.742960000000     0.718400000000     0.300240000000     0.0401497  
H972     H      0.743880000000     0.791170000000     0.224920000000     0.059698   
H973     H      0.870010000000     0.684660000000     0.247510000000     0.0462061  
H974     H      0.704850000000     0.732230000000     0.287950000000     0.0644142  
H975     H      0.832250000000     0.745830000000     0.183360000000     0.0369036  
H976     H      0.831530000000     0.672700000000     0.258150000000     0.0391779  
H977     H      0.864560000000     0.718780000000     0.156090000000     0.0475696  
H978     H      0.713180000000     0.821270000000     0.253680000000     0.0358833  
H979     H      0.755030000000     0.706210000000     0.215330000000     0.0554525  
H980     H      0.711780000000     0.746630000000     0.328700000000     0.0511334  
H981     H      0.820470000000     0.757800000000     0.268190000000     0.0484025  
H982     H      0.749350000000     0.760100000000     0.311590000000     0.0388849  
H983     H      0.863810000000     0.644740000000     0.231330000000     0.0520466  
H984     H      0.827090000000     0.703790000000     0.171920000000     0.0379478  
H985     H      0.826630000000     0.661180000000     0.215510000000     0.038071   
H986     H      0.783230000000     0.775550000000     0.284180000000     0.0430403  
H987     H      0.749960000000     0.802920000000     0.266980000000     0.0447383  
H988     H      0.870450000000     0.734650000000     0.196710000000     0.0431962  
H989     H      0.822810000000     0.966300000000     0.474070000000     0.0500849  
H990     H      0.745660000000     0.006420000000     0.440950000000     0.0394099  
H991     H      0.745970000000     0.932930000000     0.515530000000     0.0596552  
H992     H      0.872280000000     0.038700000000     0.497220000000     0.053901   
H993     H      0.707400000000     0.993160000000     0.452460000000     0.0564694  
H994     H      0.834150000000     0.976600000000     0.559420000000     0.037377   
H995     H      0.833900000000     0.050990000000     0.485890000000     0.0402943  
H996     H      0.866160000000     0.003410000000     0.587840000000     0.0482657  
H997     H      0.715150000000     0.903590000000     0.486400000000     0.0348374  
H998     H      0.785640000000     0.949240000000     0.456920000000     0.0433446  
H999     H      0.714490000000     0.978520000000     0.411850000000     0.0476228  
H1000    H      0.794330000000     0.034330000000     0.543940000000     0.0429439  
H1001    H      0.751870000000     0.964730000000     0.429360000000     0.0389546  
H1002    H      0.865940000000     0.078510000000     0.513530000000     0.0553772  
H1003    H      0.828760000000     0.018380000000     0.571560000000     0.0377957  
H1004    H      0.828630000000     0.061840000000     0.528610000000     0.0380859  
H1005    H      0.757090000000     0.017290000000     0.526750000000     0.0547504  
H1006    H      0.752030000000     0.921630000000     0.473330000000     0.0448196  
H1007    H      0.872450000000     0.988360000000     0.547010000000     0.0473088  
H1008    H      0.754530000000     0.708000000000     0.527520000000     0.0491708  
H1009    H      0.831760000000     0.745030000000     0.562710000000     0.0381223  
H1010    H      0.830950000000     0.670850000000     0.489020000000     0.0593768  
H1011    H      0.706360000000     0.782940000000     0.502170000000     0.0456748  
H1012    H      0.870080000000     0.733080000000     0.551880000000     0.054463   
H1013    H      0.744000000000     0.719330000000     0.441740000000     0.0383626  
H1014    H      0.744780000000     0.793050000000     0.515950000000     0.0395979  
H1015    H      0.713300000000     0.748110000000     0.412140000000     0.0493237  
H1016    H      0.862250000000     0.642020000000     0.518320000000     0.0334931  
H1017    H      0.791230000000     0.689340000000     0.545590000000     0.0426479  
H1018    H      0.863080000000     0.716680000000     0.591790000000     0.0460055  
H1019    H      0.785080000000     0.775040000000     0.458660000000     0.0436682  
H1020    H      0.825820000000     0.703280000000     0.574240000000     0.0368313  
H1021    H      0.714080000000     0.822750000000     0.487220000000     0.0516118  
H1022    H      0.750900000000     0.760730000000     0.430050000000     0.0398227  
H1023    H      0.751360000000     0.804110000000     0.473720000000     0.0398228  
H1024    H      0.821760000000     0.756360000000     0.476710000000     0.0548234  
H1025    H      0.825530000000     0.660540000000     0.531630000000     0.0429966  
H1026    H      0.705860000000     0.733880000000     0.452820000000     0.0440916  
H1027    H      0.545210000000     0.941510000000     0.451590000000     0.042764   
H1028    H      0.496870000000     0.970740000000     0.554230000000     0.0392474  
H1029    H      0.496010000000     0.043100000000     0.478560000000     0.0647745  
H1030    H      0.623660000000     0.940470000000     0.497110000000     0.0528177  
H1031    H      0.458390000000     0.982730000000     0.542960000000     0.0550897  
H1032    H      0.584390000000     0.999500000000     0.433730000000     0.0388036  
H1033    H      0.585500000000     0.927380000000     0.509530000000     0.0392064  
H1034    H      0.616520000000     0.972620000000     0.405630000000     0.0489917  
H1035    H      0.465000000000     0.072150000000     0.507720000000     0.0467162  
H1036    H      0.507910000000     0.958250000000     0.468850000000     0.054365   
H1037    H      0.465490000000     0.998290000000     0.583210000000     0.0479418  
H1038    H      0.573460000000     0.011980000000     0.519120000000     0.0520534  
H1039    H      0.502630000000     0.012760000000     0.565020000000     0.043484   
H1040    H      0.617760000000     0.899940000000     0.482400000000     0.0515726  
H1041    H      0.579360000000     0.957260000000     0.422980000000     0.0381091  
H1042    H      0.580070000000     0.915090000000     0.467270000000     0.0372716  
H1043    H      0.536230000000     0.028690000000     0.536400000000     0.0496187  
H1044    H      0.502130000000     0.055040000000     0.520530000000     0.0621183  
H1045    H      0.622920000000     0.988980000000     0.445880000000     0.0479699  
H1046    H      0.780020000000     0.951690000000     0.281190000000     0.0437667  
H1047    H      0.830280000000     0.979800000000     0.180350000000     0.0381674  
H1048    H      0.829240000000     0.052900000000     0.255200000000     0.0592695  
H1049    H      0.702240000000     0.948800000000     0.234880000000     0.0530332  
H1050    H      0.868500000000     0.989980000000     0.193970000000     0.0550166  
H1051    H      0.740000000000     0.010590000000     0.295410000000     0.0389559  
H1052    H      0.740550000000     0.936440000000     0.221480000000     0.040795   
H1053    H      0.708240000000     0.983640000000     0.323860000000     0.0499126  
H1054    H      0.861800000000     0.080640000000     0.228300000000     0.0331424  
H1055    H      0.817610000000     0.968280000000     0.265590000000     0.0548944  
H1056    H      0.862950000000     0.006680000000     0.153640000000     0.0463877  
H1057    H      0.753170000000     0.020840000000     0.210970000000     0.0502425  
H1058    H      0.825580000000     0.021980000000     0.169030000000     0.0369876  
H1059    H      0.708830000000     0.908210000000     0.248970000000     0.055476   
H1060    H      0.746070000000     0.969110000000     0.307950000000     0.0403185  
H1061    H      0.746430000000     0.924880000000     0.263840000000     0.0402864  
H1062    H      0.790800000000     0.037460000000     0.195400000000     0.0427029  
H1063    H      0.825080000000     0.064250000000     0.212510000000     0.0430646  
H1064    H      0.701920000000     0.996540000000     0.282280000000     0.047638   
H1065    H      0.506640000000     0.765300000000     0.780060000000     0.0474631  
H1066    H      0.581980000000     0.802310000000     0.735990000000     0.0409052  
H1067    H      0.584830000000     0.726280000000     0.807690000000     0.0592078  
H1068    H      0.455330000000     0.741850000000     0.708540000000     0.041886   
H1069    H      0.620800000000     0.791490000000     0.744850000000     0.0655087  
H1070    H      0.495750000000     0.681230000000     0.767240000000     0.0391989  
H1071    H      0.493110000000     0.756520000000     0.694700000000     0.0375093  
H1072    H      0.464010000000     0.652510000000     0.740160000000     0.0500564  
H1073    H      0.616940000000     0.754090000000     0.835340000000     0.0342803  
H1074    H      0.544050000000     0.782980000000     0.795620000000     0.0420198  
H1075    H      0.614130000000     0.830380000000     0.762920000000     0.0533478  
H1076    H      0.534230000000     0.699830000000     0.706940000000     0.0460953  
H1077    H      0.577520000000     0.811880000000     0.779210000000     0.0368525  
H1078    H      0.461290000000     0.729000000000     0.666840000000     0.0488465  
H1079    H      0.501010000000     0.670840000000     0.724390000000     0.0420797  
H1080    H      0.499390000000     0.715330000000     0.681510000000     0.0418871  
H1081    H      0.571620000000     0.717560000000     0.722450000000     0.0576427  
H1082    H      0.579340000000     0.767560000000     0.820860000000     0.0424385  
H1083    H      0.457040000000     0.692290000000     0.756060000000     0.0438556  
H1084    H      0.577400000000     0.737010000000     0.000250000000     0.0459027  
H1085    H      0.502470000000     0.747910000000     0.061930000000     0.0386239  
H1086    H      0.502730000000     0.675530000000     0.986460000000     0.0613275  
H1087    H      0.586700000000     0.845610000000     0.941020000000     0.0380251  
H1088    H      0.490630000000     0.699270000000     0.089990000000     0.0515361  
H1089    H      0.572300000000     0.746840000000     0.915960000000     0.0378843  
H1090    H      0.572740000000     0.819890000000     0.990880000000     0.0371326  
H1091    H      0.608500000000     0.767170000000     0.894400000000     0.0505166  
H1092    H      0.467140000000     0.652370000000     0.009570000000     0.0381149  
H1093    H      0.549380000000     0.705880000000     0.030920000000     0.0559421  
H1094    H      0.466830000000     0.724790000000     0.084420000000     0.0465254  
H1095    H      0.525890000000     0.788590000000     0.947750000000     0.0468354  
H1096    H      0.480210000000     0.745930000000     0.032200000000     0.0410425  
H1097    H      0.609030000000     0.840840000000     0.969990000000     0.0490897  
H1098    H      0.594100000000     0.746570000000     0.946560000000     0.0429101  
H1099    H      0.594360000000     0.789440000000     0.990540000000     0.0425681  
H1100    H      0.497830000000     0.757360000000     0.978500000000     0.0451806  
H1101    H      0.480280000000     0.704200000000     0.989440000000     0.0496968  
H1102    H      0.586330000000     0.796120000000     0.890270000000     0.0376565  
H1103    H      0.530550000000     0.023610000000     0.712310000000     0.0457218  
H1104    H      0.580420000000     0.995310000000     0.813440000000     0.0395951  
H1105    H      0.579480000000     0.922010000000     0.738810000000     0.0593854  
H1106    H      0.452650000000     0.026790000000     0.758440000000     0.0511616  
H1107    H      0.618670000000     0.985010000000     0.800170000000     0.0567649  
H1108    H      0.490460000000     0.965150000000     0.697600000000     0.0381543  
H1109    H      0.490970000000     0.038940000000     0.771860000000     0.0404828  
H1110    H      0.458770000000     0.992330000000     0.669150000000     0.0494274  
H1111    H      0.611920000000     0.894230000000     0.766050000000     0.0339613  
H1112    H      0.568060000000     0.006820000000     0.728180000000     0.0568508  
H1113    H      0.612960000000     0.968330000000     0.840460000000     0.0471561  
H1114    H      0.503320000000     0.954540000000     0.782280000000     0.0489874  
H1115    H      0.575610000000     0.953180000000     0.824820000000     0.0371217  
H1116    H      0.459320000000     0.067360000000     0.744390000000     0.0528656  
H1117    H      0.496560000000     0.006690000000     0.685330000000     0.041888   
H1118    H      0.496890000000     0.050620000000     0.729550000000     0.0417462  
H1119    H      0.540870000000     0.937740000000     0.798130000000     0.0423861  
H1120    H      0.575180000000     0.910830000000     0.781500000000     0.0428337  
H1121    H      0.452350000000     0.979060000000     0.710580000000     0.0456358  
H1122    H      0.792370000000     0.688460000000     0.699320000000     0.0429626  
H1123    H      0.742960000000     0.718400000000     0.800240000000     0.04015    
H1124    H      0.743880000000     0.791170000000     0.724920000000     0.059699   
H1125    H      0.870010000000     0.684660000000     0.747510000000     0.046207   
H1126    H      0.704850000000     0.732230000000     0.787950000000     0.0644169  
H1127    H      0.832250000000     0.745830000000     0.683360000000     0.0368728  
H1128    H      0.831530000000     0.672700000000     0.758150000000     0.0391778  
H1129    H      0.864560000000     0.718780000000     0.656090000000     0.0475787  
H1130    H      0.713180000000     0.821270000000     0.753680000000     0.035876   
H1131    H      0.755030000000     0.706210000000     0.715330000000     0.055452   
H1132    H      0.711780000000     0.746630000000     0.828700000000     0.0511335  
H1133    H      0.820470000000     0.757800000000     0.768190000000     0.0484026  
H1134    H      0.749350000000     0.760100000000     0.811590000000     0.0388849  
H1135    H      0.863810000000     0.644740000000     0.731330000000     0.0520475  
H1136    H      0.827090000000     0.703790000000     0.671920000000     0.0379141  
H1137    H      0.826630000000     0.661180000000     0.715510000000     0.0380699  
H1138    H      0.783230000000     0.775550000000     0.784180000000     0.0430402  
H1139    H      0.749960000000     0.802920000000     0.766980000000     0.0447401  
H1140    H      0.870450000000     0.734650000000     0.696710000000     0.0432056  
H1141    H      0.822810000000     0.966300000000     0.974070000000     0.050084   
H1142    H      0.745660000000     0.006420000000     0.940950000000     0.0394102  
H1143    H      0.745970000000     0.932930000000     0.015530000000     0.0596525  
H1144    H      0.872280000000     0.038700000000     0.997220000000     0.0539048  
H1145    H      0.707400000000     0.993160000000     0.952460000000     0.05647    
H1146    H      0.834150000000     0.976600000000     0.059420000000     0.037376   
H1147    H      0.833900000000     0.050990000000     0.985890000000     0.0402965  
H1148    H      0.866160000000     0.003410000000     0.087840000000     0.0482683  
H1149    H      0.715150000000     0.903590000000     0.986400000000     0.0348378  
H1150    H      0.785640000000     0.949240000000     0.956920000000     0.0433456  
H1151    H      0.714490000000     0.978520000000     0.911850000000     0.0476228  
H1152    H      0.794330000000     0.034330000000     0.043940000000     0.0429431  
H1153    H      0.751870000000     0.964730000000     0.929360000000     0.0389546  
H1154    H      0.865940000000     0.078510000000     0.013530000000     0.0553799  
H1155    H      0.828760000000     0.018380000000     0.071560000000     0.0377958  
H1156    H      0.828630000000     0.061840000000     0.028610000000     0.0380866  
H1157    H      0.757090000000     0.017290000000     0.026750000000     0.0547511  
H1158    H      0.752030000000     0.921630000000     0.973330000000     0.0448191  
H1159    H      0.872450000000     0.988360000000     0.047010000000     0.0473089  
H1160    H      0.754530000000     0.708000000000     0.027530000000     0.0491565  
H1161    H      0.831760000000     0.745030000000     0.062710000000     0.0381164  
H1162    H      0.830950000000     0.670850000000     0.989020000000     0.0593791  
H1163    H      0.706360000000     0.782940000000     0.002170000000     0.0456721  
H1164    H      0.870080000000     0.733080000000     0.051880000000     0.0544804  
H1165    H      0.744000000000     0.719330000000     0.941740000000     0.0383635  
H1166    H      0.744780000000     0.793050000000     0.015950000000     0.0395954  
H1167    H      0.713300000000     0.748110000000     0.912140000000     0.0493238  
H1168    H      0.862250000000     0.642020000000     0.018320000000     0.0334928  
H1169    H      0.791230000000     0.689340000000     0.045590000000     0.0426503  
H1170    H      0.863080000000     0.716680000000     0.091790000000     0.0460256  
H1171    H      0.785080000000     0.775040000000     0.958660000000     0.0436679  
H1172    H      0.825820000000     0.703280000000     0.074240000000     0.0368264  
H1173    H      0.714080000000     0.822750000000     0.987220000000     0.0516119  
H1174    H      0.750900000000     0.760730000000     0.930050000000     0.0398227  
H1175    H      0.751360000000     0.804110000000     0.973720000000     0.0398225  
H1176    H      0.821760000000     0.756360000000     0.976710000000     0.0548237  
H1177    H      0.825530000000     0.660540000000     0.031630000000     0.042997   
H1178    H      0.705860000000     0.733880000000     0.952820000000     0.0440923  
H1179    H      0.545210000000     0.941510000000     0.951590000000     0.0427649  
H1180    H      0.496870000000     0.970740000000     0.054230000000     0.0392159  
H1181    H      0.496010000000     0.043100000000     0.978560000000     0.0647769  
H1182    H      0.623660000000     0.940470000000     0.997110000000     0.0528186  
H1183    H      0.458390000000     0.982730000000     0.042960000000     0.0550973  
H1184    H      0.584390000000     0.999500000000     0.933730000000     0.0388038  
H1185    H      0.585500000000     0.927380000000     0.009530000000     0.0392033  
H1186    H      0.616520000000     0.972620000000     0.905630000000     0.0489918  
H1187    H      0.465000000000     0.072150000000     0.007720000000     0.0467161  
H1188    H      0.507910000000     0.958250000000     0.968850000000     0.0543642  
H1189    H      0.465490000000     0.998290000000     0.083210000000     0.0479501  
H1190    H      0.573460000000     0.011980000000     0.019120000000     0.0520539  
H1191    H      0.502630000000     0.012760000000     0.065020000000     0.0434506  
H1192    H      0.617760000000     0.899940000000     0.982400000000     0.0515732  
H1193    H      0.579360000000     0.957260000000     0.922980000000     0.038109   
H1194    H      0.580070000000     0.915090000000     0.967270000000     0.0372709  
H1195    H      0.536230000000     0.028690000000     0.036400000000     0.0496182  
H1196    H      0.502130000000     0.055040000000     0.020530000000     0.0621179  
H1197    H      0.622920000000     0.988980000000     0.945880000000     0.0479702  
H1198    H      0.780020000000     0.951690000000     0.781190000000     0.0437666  
H1199    H      0.830280000000     0.979800000000     0.680350000000     0.0381619  
H1200    H      0.829240000000     0.052900000000     0.755200000000     0.0592699  
H1201    H      0.702240000000     0.948800000000     0.734880000000     0.0530332  
H1202    H      0.868500000000     0.989980000000     0.693970000000     0.0550348  
H1203    H      0.740000000000     0.010590000000     0.795410000000     0.038956   
H1204    H      0.740550000000     0.936440000000     0.721480000000     0.0407949  
H1205    H      0.708240000000     0.983640000000     0.823860000000     0.0499127  
H1206    H      0.861800000000     0.080640000000     0.728290000000     0.0331407  
H1207    H      0.817610000000     0.968280000000     0.765590000000     0.0548944  
H1208    H      0.862950000000     0.006680000000     0.653640000000     0.0464056  
H1209    H      0.753170000000     0.020840000000     0.710970000000     0.0502425  
H1210    H      0.825580000000     0.021980000000     0.669030000000     0.036982   
H1211    H      0.708830000000     0.908210000000     0.748970000000     0.055476   
H1212    H      0.746070000000     0.969110000000     0.807950000000     0.0403185  
H1213    H      0.746430000000     0.924880000000     0.763840000000     0.0402863  
H1214    H      0.790800000000     0.037460000000     0.695400000000     0.0427028  
H1215    H      0.825080000000     0.064250000000     0.712510000000     0.0430639  
H1216    H      0.701920000000     0.996540000000     0.782280000000     0.047638   
N1       N      0.120430000000     0.290980000000     0.297410000000    -0.167367   
N2       N      0.082940000000     0.261160000000     0.268420000000    -0.100487   
N3       N      0.995330000000     0.221750000000     0.233960000000    -0.112859   
N4       N      0.958810000000     0.190550000000     0.203640000000    -0.16307    
N5       N      0.968150000000     0.181470000000     0.554000000000    -0.170842   
N6       N      0.005820000000     0.210380000000     0.525600000000    -0.100762   
N7       N      0.069570000000     0.283860000000     0.452980000000    -0.113392   
N8       N      0.109560000000     0.308790000000     0.427390000000    -0.162703   
N9       N      0.117640000000     0.433220000000     0.300990000000    -0.169846   
N10      N      0.079610000000     0.462050000000     0.272750000000    -0.100758   
N11      N      0.991780000000     0.499300000000     0.237530000000    -0.112423   
N12      N      0.955660000000     0.530430000000     0.206240000000    -0.161973   
N13      N      0.208280000000     0.283780000000     0.290690000000    -0.169497   
N14      N      0.244140000000     0.251760000000     0.259630000000    -0.100813   
N15      N      0.331400000000     0.212460000000     0.223970000000    -0.112949   
N16      N      0.368850000000     0.182950000000     0.195050000000    -0.162435   
N17      N      0.210390000000     0.441560000000     0.449840000000    -0.171288   
N18      N      0.246420000000     0.472750000000     0.481310000000    -0.100923   
N19      N      0.333500000000     0.510700000000     0.519430000000    -0.112431   
N20      N      0.370570000000     0.540000000000     0.549660000000    -0.160768   
N21      N      0.368210000000     0.181340000000     0.552720000000    -0.169495   
N22      N      0.331200000000     0.211400000000     0.522330000000    -0.100998   
N23      N      0.245090000000     0.253140000000     0.481960000000    -0.112643   
N24      N      0.209490000000     0.285300000000     0.449920000000    -0.162906   
N25      N      0.960650000000     0.534440000000     0.544640000000    -0.168659   
N26      N      0.997040000000     0.503730000000     0.513290000000    -0.100442   
N27      N      0.084350000000     0.466620000000     0.474770000000    -0.112082   
N28      N      0.121600000000     0.437250000000     0.444790000000    -0.160074   
N29      N      0.367510000000     0.541780000000     0.193170000000    -0.170357   
N30      N      0.329400000000     0.512980000000     0.221110000000    -0.101003   
N31      N      0.241390000000     0.476190000000     0.255690000000    -0.112365   
N32      N      0.205290000000     0.445220000000     0.287080000000    -0.161783   
N33      N      0.120430000000     0.290980000000     0.797410000000    -0.167366   
N34      N      0.082940000000     0.261160000000     0.768420000000    -0.100487   
N35      N      0.995330000000     0.221750000000     0.733960000000    -0.112862   
N36      N      0.958810000000     0.190550000000     0.703640000000    -0.163101   
N37      N      0.968150000000     0.181470000000     0.054000000000    -0.170841   
N38      N      0.005820000000     0.210380000000     0.025600000000    -0.100761   
N39      N      0.069570000000     0.283860000000     0.952980000000    -0.113391   
N40      N      0.109560000000     0.308790000000     0.927390000000    -0.162703   
N41      N      0.117640000000     0.433220000000     0.800990000000    -0.169848   
N42      N      0.079610000000     0.462050000000     0.772750000000    -0.10075    
N43      N      0.991780000000     0.499300000000     0.737530000000    -0.112423   
N44      N      0.955660000000     0.530430000000     0.706240000000    -0.161976   
N45      N      0.208280000000     0.283780000000     0.790690000000    -0.169498   
N46      N      0.244140000000     0.251760000000     0.759630000000    -0.100811   
N47      N      0.331400000000     0.212460000000     0.723970000000    -0.112962   
N48      N      0.368850000000     0.182950000000     0.695050000000    -0.16243    
N49      N      0.210390000000     0.441560000000     0.949840000000    -0.171288   
N50      N      0.246420000000     0.472750000000     0.981310000000    -0.100923   
N51      N      0.333500000000     0.510700000000     0.019430000000    -0.112431   
N52      N      0.370570000000     0.540000000000     0.049660000000    -0.160736   
N53      N      0.368210000000     0.181340000000     0.052720000000    -0.169485   
N54      N      0.331200000000     0.211400000000     0.022330000000    -0.101001   
N55      N      0.245090000000     0.253140000000     0.981960000000    -0.112642   
N56      N      0.209490000000     0.285300000000     0.949920000000    -0.162907   
N57      N      0.960650000000     0.534440000000     0.044640000000    -0.168655   
N58      N      0.997040000000     0.503730000000     0.013290000000    -0.100454   
N59      N      0.084350000000     0.466620000000     0.974770000000    -0.112083   
N60      N      0.121600000000     0.437250000000     0.944790000000    -0.160074   
N61      N      0.367510000000     0.541780000000     0.693170000000    -0.170348   
N62      N      0.329400000000     0.512980000000     0.721110000000    -0.101006   
N63      N      0.241390000000     0.476190000000     0.755690000000    -0.112365   
N64      N      0.205290000000     0.445220000000     0.787080000000    -0.161783   
N65      N      0.120430000000     0.790980000000     0.297410000000    -0.167367   
N66      N      0.082940000000     0.761160000000     0.268420000000    -0.100488   
N67      N      0.995330000000     0.721750000000     0.233960000000    -0.112861   
N68      N      0.958810000000     0.690550000000     0.203640000000    -0.16307    
N69      N      0.968150000000     0.681470000000     0.554000000000    -0.170841   
N70      N      0.005820000000     0.710380000000     0.525600000000    -0.100762   
N71      N      0.069570000000     0.783860000000     0.452980000000    -0.113392   
N72      N      0.109560000000     0.808790000000     0.427390000000    -0.162703   
N73      N      0.117640000000     0.933220000000     0.300990000000    -0.169847   
N74      N      0.079610000000     0.962050000000     0.272750000000    -0.100764   
N75      N      0.991780000000     0.999300000000     0.237530000000    -0.112425   
N76      N      0.955660000000     0.030430000000     0.206240000000    -0.161964   
N77      N      0.208280000000     0.783780000000     0.290690000000    -0.169477   
N78      N      0.244140000000     0.751760000000     0.259630000000    -0.100813   
N79      N      0.331400000000     0.712460000000     0.223970000000    -0.11295    
N80      N      0.368850000000     0.682950000000     0.195050000000    -0.162435   
N81      N      0.210390000000     0.941560000000     0.449840000000    -0.171289   
N82      N      0.246420000000     0.972750000000     0.481310000000    -0.100918   
N83      N      0.333500000000     0.010700000000     0.519430000000    -0.112432   
N84      N      0.370570000000     0.040000000000     0.549660000000    -0.160799   
N85      N      0.368210000000     0.681340000000     0.552720000000    -0.169495   
N86      N      0.331200000000     0.711400000000     0.522330000000    -0.101001   
N87      N      0.245090000000     0.753140000000     0.481960000000    -0.112636   
N88      N      0.209490000000     0.785300000000     0.449920000000    -0.162907   
N89      N      0.960650000000     0.034440000000     0.544640000000    -0.168665   
N90      N      0.997040000000     0.003730000000     0.513290000000    -0.100411   
N91      N      0.084350000000     0.966620000000     0.474770000000    -0.112082   
N92      N      0.121600000000     0.937250000000     0.444790000000    -0.160074   
N93      N      0.367510000000     0.041780000000     0.193170000000    -0.170359   
N94      N      0.329400000000     0.012980000000     0.221110000000    -0.10101    
N95      N      0.241390000000     0.976190000000     0.255690000000    -0.112365   
N96      N      0.205290000000     0.945220000000     0.287080000000    -0.161783   
N97      N      0.120430000000     0.790980000000     0.797410000000    -0.167366   
N98      N      0.082940000000     0.761160000000     0.768420000000    -0.100488   
N99      N      0.995330000000     0.721750000000     0.733960000000    -0.112864   
N100     N      0.958810000000     0.690550000000     0.703640000000    -0.163101   
N101     N      0.968150000000     0.681470000000     0.054000000000    -0.170841   
N102     N      0.005820000000     0.710380000000     0.025600000000    -0.100761   
N103     N      0.069570000000     0.783860000000     0.952980000000    -0.113391   
N104     N      0.109560000000     0.808790000000     0.927390000000    -0.162703   
N105     N      0.117640000000     0.933220000000     0.800990000000    -0.169848   
N106     N      0.079610000000     0.962050000000     0.772750000000    -0.100756   
N107     N      0.991780000000     0.999300000000     0.737530000000    -0.112425   
N108     N      0.955660000000     0.030430000000     0.706240000000    -0.161967   
N109     N      0.208280000000     0.783780000000     0.790690000000    -0.169479   
N110     N      0.244140000000     0.751760000000     0.759630000000    -0.100811   
N111     N      0.331400000000     0.712460000000     0.723970000000    -0.112963   
N112     N      0.368850000000     0.682950000000     0.695050000000    -0.16243    
N113     N      0.210390000000     0.941560000000     0.949840000000    -0.171289   
N114     N      0.246420000000     0.972750000000     0.981310000000    -0.100919   
N115     N      0.333500000000     0.010700000000     0.019430000000    -0.112433   
N116     N      0.370570000000     0.040000000000     0.049660000000    -0.160767   
N117     N      0.368210000000     0.681340000000     0.052720000000    -0.169484   
N118     N      0.331200000000     0.711400000000     0.022330000000    -0.101004   
N119     N      0.245090000000     0.753140000000     0.981960000000    -0.112635   
N120     N      0.209490000000     0.785300000000     0.949920000000    -0.162907   
N121     N      0.960650000000     0.034440000000     0.044640000000    -0.16866    
N122     N      0.997040000000     0.003730000000     0.013290000000    -0.100423   
N123     N      0.084350000000     0.966620000000     0.974770000000    -0.112083   
N124     N      0.121600000000     0.937250000000     0.944790000000    -0.160074   
N125     N      0.367510000000     0.041780000000     0.693170000000    -0.170349   
N126     N      0.329400000000     0.012980000000     0.721110000000    -0.101013   
N127     N      0.241390000000     0.976190000000     0.755690000000    -0.112365   
N128     N      0.205290000000     0.945220000000     0.787080000000    -0.161783   
N129     N      0.620430000000     0.290980000000     0.297410000000    -0.16736    
N130     N      0.582940000000     0.261160000000     0.268420000000    -0.100495   
N131     N      0.495330000000     0.221750000000     0.233960000000    -0.112877   
N132     N      0.458810000000     0.190550000000     0.203640000000    -0.163073   
N133     N      0.468150000000     0.181470000000     0.554000000000    -0.170848   
N134     N      0.505820000000     0.210380000000     0.525600000000    -0.100707   
N135     N      0.569570000000     0.283860000000     0.452980000000    -0.113393   
N136     N      0.609560000000     0.308790000000     0.427390000000    -0.162703   
N137     N      0.617640000000     0.433220000000     0.300990000000    -0.169845   
N138     N      0.579610000000     0.462050000000     0.272750000000    -0.100721   
N139     N      0.491780000000     0.499300000000     0.237530000000    -0.112448   
N140     N      0.455660000000     0.530430000000     0.206240000000    -0.161974   
N141     N      0.708280000000     0.283780000000     0.290690000000    -0.169496   
N142     N      0.744140000000     0.251760000000     0.259630000000    -0.100813   
N143     N      0.831400000000     0.212460000000     0.223970000000    -0.112949   
N144     N      0.868840000000     0.182950000000     0.195050000000    -0.162357   
N145     N      0.710390000000     0.441560000000     0.449840000000    -0.171287   
N146     N      0.746420000000     0.472750000000     0.481310000000    -0.100923   
N147     N      0.833500000000     0.510700000000     0.519430000000    -0.112452   
N148     N      0.870580000000     0.540000000000     0.549660000000    -0.160843   
N149     N      0.868210000000     0.181340000000     0.552720000000    -0.169495   
N150     N      0.831200000000     0.211400000000     0.522330000000    -0.100998   
N151     N      0.745090000000     0.253140000000     0.481960000000    -0.112644   
N152     N      0.709490000000     0.285300000000     0.449920000000    -0.162907   
N153     N      0.460650000000     0.534440000000     0.544640000000    -0.168665   
N154     N      0.497040000000     0.503730000000     0.513290000000    -0.100454   
N155     N      0.584350000000     0.466620000000     0.474770000000    -0.11208    
N156     N      0.621600000000     0.437250000000     0.444790000000    -0.16008    
N157     N      0.867510000000     0.541780000000     0.193170000000    -0.170338   
N158     N      0.829400000000     0.512980000000     0.221110000000    -0.100998   
N159     N      0.741390000000     0.476190000000     0.255690000000    -0.112365   
N160     N      0.705290000000     0.445220000000     0.287080000000    -0.16179    
N161     N      0.620430000000     0.290980000000     0.797410000000    -0.16736    
N162     N      0.582940000000     0.261160000000     0.768420000000    -0.100495   
N163     N      0.495330000000     0.221750000000     0.733960000000    -0.11288    
N164     N      0.458810000000     0.190550000000     0.703640000000    -0.163104   
N165     N      0.468150000000     0.181470000000     0.054000000000    -0.170847   
N166     N      0.505820000000     0.210380000000     0.025600000000    -0.100706   
N167     N      0.569570000000     0.283860000000     0.952980000000    -0.113392   
N168     N      0.609560000000     0.308790000000     0.927390000000    -0.162703   
N169     N      0.617640000000     0.433220000000     0.800990000000    -0.169846   
N170     N      0.579610000000     0.462050000000     0.772750000000    -0.100713   
N171     N      0.491780000000     0.499300000000     0.737530000000    -0.112448   
N172     N      0.455660000000     0.530430000000     0.706240000000    -0.161977   
N173     N      0.708280000000     0.283780000000     0.790690000000    -0.169498   
N174     N      0.744140000000     0.251760000000     0.759630000000    -0.100811   
N175     N      0.831400000000     0.212460000000     0.723970000000    -0.112962   
N176     N      0.868840000000     0.182950000000     0.695050000000    -0.162351   
N177     N      0.710390000000     0.441560000000     0.949840000000    -0.171287   
N178     N      0.746420000000     0.472750000000     0.981310000000    -0.100923   
N179     N      0.833500000000     0.510700000000     0.019430000000    -0.112453   
N180     N      0.870580000000     0.540000000000     0.049660000000    -0.160811   
N181     N      0.868210000000     0.181340000000     0.052720000000    -0.169485   
N182     N      0.831200000000     0.211400000000     0.022330000000    -0.101001   
N183     N      0.745090000000     0.253140000000     0.981960000000    -0.112642   
N184     N      0.709490000000     0.285300000000     0.949920000000    -0.162907   
N185     N      0.460650000000     0.534440000000     0.044640000000    -0.16866    
N186     N      0.497040000000     0.503730000000     0.013290000000    -0.100466   
N187     N      0.584350000000     0.466620000000     0.974770000000    -0.112081   
N188     N      0.621600000000     0.437250000000     0.944790000000    -0.16008    
N189     N      0.867510000000     0.541780000000     0.693170000000    -0.170328   
N190     N      0.829400000000     0.512980000000     0.721110000000    -0.101001   
N191     N      0.741390000000     0.476190000000     0.755690000000    -0.112365   
N192     N      0.705290000000     0.445220000000     0.787080000000    -0.16179    
N193     N      0.620430000000     0.790980000000     0.297410000000    -0.16736    
N194     N      0.582940000000     0.761160000000     0.268420000000    -0.100496   
N195     N      0.495330000000     0.721750000000     0.233960000000    -0.112878   
N196     N      0.458810000000     0.690550000000     0.203640000000    -0.163073   
N197     N      0.468150000000     0.681470000000     0.554000000000    -0.170848   
N198     N      0.505820000000     0.710380000000     0.525600000000    -0.100707   
N199     N      0.569570000000     0.783860000000     0.452980000000    -0.113393   
N200     N      0.609560000000     0.808790000000     0.427390000000    -0.162703   
N201     N      0.617640000000     0.933220000000     0.300990000000    -0.169845   
N202     N      0.579610000000     0.962050000000     0.272750000000    -0.100727   
N203     N      0.491780000000     0.999300000000     0.237530000000    -0.112449   
N204     N      0.455660000000     0.030430000000     0.206240000000    -0.161965   
N205     N      0.708280000000     0.783780000000     0.290690000000    -0.169477   
N206     N      0.744140000000     0.751760000000     0.259630000000    -0.100813   
N207     N      0.831400000000     0.712460000000     0.223970000000    -0.11295    
N208     N      0.868840000000     0.682950000000     0.195050000000    -0.162356   
N209     N      0.710390000000     0.941560000000     0.449840000000    -0.171288   
N210     N      0.746420000000     0.972750000000     0.481310000000    -0.100918   
N211     N      0.833500000000     0.010700000000     0.519430000000    -0.112454   
N212     N      0.870580000000     0.040000000000     0.549660000000    -0.160874   
N213     N      0.868210000000     0.681340000000     0.552720000000    -0.169495   
N214     N      0.831200000000     0.711400000000     0.522330000000    -0.101001   
N215     N      0.745090000000     0.753140000000     0.481960000000    -0.112637   
N216     N      0.709490000000     0.785300000000     0.449920000000    -0.162907   
N217     N      0.460650000000     0.034440000000     0.544640000000    -0.168671   
N218     N      0.497040000000     0.003730000000     0.513290000000    -0.100423   
N219     N      0.584350000000     0.966620000000     0.474770000000    -0.11208    
N220     N      0.621600000000     0.937250000000     0.444790000000    -0.16008    
N221     N      0.867510000000     0.041780000000     0.193170000000    -0.170339   
N222     N      0.829400000000     0.012980000000     0.221110000000    -0.101005   
N223     N      0.741390000000     0.976190000000     0.255690000000    -0.112365   
N224     N      0.705290000000     0.945220000000     0.287080000000    -0.16179    
N225     N      0.620430000000     0.790980000000     0.797410000000    -0.16736    
N226     N      0.582940000000     0.761160000000     0.768420000000    -0.100496   
N227     N      0.495330000000     0.721750000000     0.733960000000    -0.112881   
N228     N      0.458810000000     0.690550000000     0.703640000000    -0.163104   
N229     N      0.468150000000     0.681470000000     0.054000000000    -0.170847   
N230     N      0.505820000000     0.710380000000     0.025600000000    -0.100706   
N231     N      0.569570000000     0.783860000000     0.952980000000    -0.113392   
N232     N      0.609560000000     0.808790000000     0.927390000000    -0.162703   
N233     N      0.617640000000     0.933220000000     0.800990000000    -0.169847   
N234     N      0.579610000000     0.962050000000     0.772750000000    -0.10072    
N235     N      0.491780000000     0.999300000000     0.737530000000    -0.112449   
N236     N      0.455660000000     0.030430000000     0.706240000000    -0.161968   
N237     N      0.708280000000     0.783780000000     0.790690000000    -0.169478   
N238     N      0.744140000000     0.751760000000     0.759630000000    -0.100811   
N239     N      0.831400000000     0.712460000000     0.723970000000    -0.112963   
N240     N      0.868840000000     0.682950000000     0.695050000000    -0.162351   
N241     N      0.710390000000     0.941560000000     0.949840000000    -0.171288   
N242     N      0.746420000000     0.972750000000     0.981310000000    -0.100919   
N243     N      0.833500000000     0.010700000000     0.019430000000    -0.112454   
N244     N      0.870580000000     0.040000000000     0.049660000000    -0.160842   
N245     N      0.868210000000     0.681340000000     0.052720000000    -0.169484   
N246     N      0.831200000000     0.711400000000     0.022330000000    -0.101004   
N247     N      0.745090000000     0.753140000000     0.981960000000    -0.112635   
N248     N      0.709490000000     0.785300000000     0.949920000000    -0.162907   
N249     N      0.460650000000     0.034440000000     0.044640000000    -0.168666   
N250     N      0.497040000000     0.003730000000     0.013290000000    -0.100435   
N251     N      0.584350000000     0.966620000000     0.974770000000    -0.11208    
N252     N      0.621600000000     0.937250000000     0.944790000000    -0.16008    
N253     N      0.867510000000     0.041780000000     0.693170000000    -0.17033    
N254     N      0.829400000000     0.012980000000     0.721110000000    -0.101008   
N255     N      0.741390000000     0.976190000000     0.755690000000    -0.112365   
N256     N      0.705290000000     0.945220000000     0.787080000000    -0.16179    
O1       O      0.392770000000     0.545450000000     0.151040000000    -0.366216   
O2       O      0.393110000000     0.177880000000     0.595500000000    -0.368196   
O3       O      0.393260000000     0.140270000000     0.191320000000    -0.362626   
O4       O      0.394000000000     0.583620000000     0.555300000000    -0.359869   
O5       O      0.393070000000     0.178270000000     0.151720000000    -0.365476   
O6       O      0.394390000000     0.544350000000     0.593590000000    -0.364314   
O7       O      0.393100000000     0.139180000000     0.556630000000    -0.360596   
O8       O      0.392460000000     0.583830000000     0.190250000000    -0.359202   
O9       O      0.939660000000     0.541870000000     0.591410000000    -0.365162   
O10      O      0.937840000000     0.183000000000     0.156950000000    -0.360561   
O11      O      0.936800000000     0.578150000000     0.196850000000    -0.361077   
O12      O      0.942470000000     0.140440000000     0.556050000000    -0.35518    
O13      O      0.942410000000     0.178630000000     0.595460000000    -0.366922   
O14      O      0.936890000000     0.539610000000     0.157790000000    -0.364361   
O15      O      0.939050000000     0.579930000000     0.551890000000    -0.348804   
O16      O      0.938700000000     0.143720000000     0.195220000000    -0.363591   
O17      O      0.427530000000     0.611570000000     0.123970000000    -0.585679   
O18      O      0.186840000000     0.397270000000     0.297000000000    -0.360779   
O19      O      0.188900000000     0.331780000000     0.442060000000    -0.367098   
O20      O      0.189520000000     0.434040000000     0.403010000000    -0.366849   
O21      O      0.188440000000     0.292570000000     0.338210000000    -0.362277   
O22      O      0.189670000000     0.395360000000     0.441920000000    -0.360328   
O23      O      0.188310000000     0.330760000000     0.298800000000    -0.359521   
O24      O      0.188640000000     0.293220000000     0.403070000000    -0.368589   
O25      O      0.186930000000     0.435990000000     0.335860000000    -0.365545   
O26      O      0.143840000000     0.334810000000     0.302440000000    -0.355519   
O27      O      0.145150000000     0.393610000000     0.439730000000    -0.349544   
O28      O      0.143010000000     0.429850000000     0.343020000000    -0.364121   
O29      O      0.139260000000     0.304200000000     0.392640000000    -0.367821   
O30      O      0.139500000000     0.342710000000     0.431640000000    -0.366985   
O31      O      0.142700000000     0.391300000000     0.303980000000    -0.356886   
O32      O      0.144580000000     0.295750000000     0.340940000000    -0.347054   
O33      O      0.144810000000     0.431690000000     0.400220000000    -0.360027   
O34      O      0.178160000000     0.363950000000     0.370250000000    -0.587081   
O35      O      0.392770000000     0.545450000000     0.651040000000    -0.366225   
O36      O      0.393110000000     0.177880000000     0.095500000000    -0.368198   
O37      O      0.393260000000     0.140270000000     0.691320000000    -0.362625   
O38      O      0.394000000000     0.583620000000     0.055300000000    -0.35982    
O39      O      0.393070000000     0.178270000000     0.651720000000    -0.365469   
O40      O      0.394390000000     0.544350000000     0.093600000000    -0.364224   
O41      O      0.393100000000     0.139180000000     0.056630000000    -0.360597   
O42      O      0.392460000000     0.583830000000     0.690250000000    -0.359204   
O43      O      0.939660000000     0.541870000000     0.091410000000    -0.365168   
O44      O      0.937840000000     0.183000000000     0.656960000000    -0.360651   
O45      O      0.936800000000     0.578150000000     0.696850000000    -0.361077   
O46      O      0.942470000000     0.140440000000     0.056050000000    -0.355178   
O47      O      0.942410000000     0.178630000000     0.095460000000    -0.366915   
O48      O      0.936890000000     0.539610000000     0.657790000000    -0.364358   
O49      O      0.939050000000     0.579930000000     0.051890000000    -0.348805   
O50      O      0.938700000000     0.143720000000     0.695220000000    -0.363641   
O51      O      0.427530000000     0.611570000000     0.623970000000    -0.585678   
O52      O      0.186840000000     0.397270000000     0.797000000000    -0.360779   
O53      O      0.188900000000     0.331780000000     0.942060000000    -0.367098   
O54      O      0.189520000000     0.434040000000     0.903010000000    -0.366849   
O55      O      0.188440000000     0.292570000000     0.838210000000    -0.362277   
O56      O      0.189670000000     0.395360000000     0.941920000000    -0.360328   
O57      O      0.188310000000     0.330760000000     0.798800000000    -0.359521   
O58      O      0.188640000000     0.293220000000     0.903070000000    -0.368589   
O59      O      0.186930000000     0.435990000000     0.835860000000    -0.365545   
O60      O      0.143840000000     0.334810000000     0.802440000000    -0.355519   
O61      O      0.145150000000     0.393610000000     0.939730000000    -0.349544   
O62      O      0.143010000000     0.429850000000     0.843020000000    -0.364121   
O63      O      0.139260000000     0.304200000000     0.892640000000    -0.367821   
O64      O      0.139500000000     0.342710000000     0.931640000000    -0.366985   
O65      O      0.142700000000     0.391300000000     0.803980000000    -0.356886   
O66      O      0.144580000000     0.295750000000     0.840940000000    -0.347054   
O67      O      0.144810000000     0.431690000000     0.900220000000    -0.360027   
O68      O      0.178160000000     0.363950000000     0.870250000000    -0.587081   
O69      O      0.392770000000     0.045450000000     0.151040000000    -0.366213   
O70      O      0.393110000000     0.677880000000     0.595500000000    -0.368196   
O71      O      0.393260000000     0.640270000000     0.191320000000    -0.362625   
O72      O      0.394000000000     0.083620000000     0.555300000000    -0.35977    
O73      O      0.393070000000     0.678270000000     0.151720000000    -0.365476   
O74      O      0.394390000000     0.044350000000     0.593590000000    -0.364343   
O75      O      0.393100000000     0.639180000000     0.556630000000    -0.360594   
O76      O      0.392460000000     0.083830000000     0.190250000000    -0.359203   
O77      O      0.939660000000     0.041870000000     0.591410000000    -0.36516    
O78      O      0.937840000000     0.683000000000     0.156950000000    -0.360561   
O79      O      0.936800000000     0.078150000000     0.196850000000    -0.361077   
O80      O      0.942470000000     0.640440000000     0.556050000000    -0.355181   
O81      O      0.942410000000     0.678630000000     0.595460000000    -0.366922   
O82      O      0.936890000000     0.039610000000     0.157790000000    -0.364356   
O83      O      0.939050000000     0.079930000000     0.551890000000    -0.348808   
O84      O      0.938700000000     0.643720000000     0.195220000000    -0.363591   
O85      O      0.427530000000     0.111570000000     0.123970000000    -0.585678   
O86      O      0.186840000000     0.897270000000     0.297000000000    -0.360779   
O87      O      0.188900000000     0.831780000000     0.442060000000    -0.367098   
O88      O      0.189520000000     0.934040000000     0.403010000000    -0.36685    
O89      O      0.188440000000     0.792570000000     0.338210000000    -0.362276   
O90      O      0.189670000000     0.895360000000     0.441920000000    -0.360328   
O91      O      0.188310000000     0.830760000000     0.298800000000    -0.359519   
O92      O      0.188640000000     0.793220000000     0.403070000000    -0.368589   
O93      O      0.186930000000     0.935990000000     0.335860000000    -0.365546   
O94      O      0.143840000000     0.834810000000     0.302440000000    -0.355519   
O95      O      0.145150000000     0.893610000000     0.439730000000    -0.349544   
O96      O      0.143010000000     0.929850000000     0.343020000000    -0.364122   
O97      O      0.139260000000     0.804200000000     0.392640000000    -0.367821   
O98      O      0.139500000000     0.842710000000     0.431640000000    -0.366985   
O99      O      0.142700000000     0.891300000000     0.303980000000    -0.356886   
O100     O      0.144580000000     0.795750000000     0.340940000000    -0.347054   
O101     O      0.144810000000     0.931690000000     0.400220000000    -0.360027   
O102     O      0.178160000000     0.863950000000     0.370250000000    -0.587081   
O103     O      0.392770000000     0.045450000000     0.651040000000    -0.366223   
O104     O      0.393110000000     0.677880000000     0.095500000000    -0.368198   
O105     O      0.393260000000     0.640270000000     0.691320000000    -0.362624   
O106     O      0.394000000000     0.083620000000     0.055300000000    -0.359721   
O107     O      0.393070000000     0.678270000000     0.651720000000    -0.365469   
O108     O      0.394390000000     0.044350000000     0.093600000000    -0.364253   
O109     O      0.393100000000     0.639180000000     0.056630000000    -0.360594   
O110     O      0.392460000000     0.083830000000     0.690250000000    -0.359206   
O111     O      0.939660000000     0.041870000000     0.091410000000    -0.365165   
O112     O      0.937840000000     0.683000000000     0.656960000000    -0.360651   
O113     O      0.936800000000     0.078150000000     0.696850000000    -0.361076   
O114     O      0.942470000000     0.640440000000     0.056050000000    -0.355179   
O115     O      0.942410000000     0.678630000000     0.095460000000    -0.366915   
O116     O      0.936890000000     0.039610000000     0.657790000000    -0.364353   
O117     O      0.939050000000     0.079930000000     0.051890000000    -0.348809   
O118     O      0.938700000000     0.643720000000     0.695220000000    -0.363641   
O119     O      0.427530000000     0.111570000000     0.623970000000    -0.585676   
O120     O      0.186840000000     0.897270000000     0.797000000000    -0.360779   
O121     O      0.188900000000     0.831780000000     0.942060000000    -0.367098   
O122     O      0.189520000000     0.934040000000     0.903010000000    -0.36685    
O123     O      0.188440000000     0.792570000000     0.838210000000    -0.362275   
O124     O      0.189670000000     0.895360000000     0.941920000000    -0.360328   
O125     O      0.188310000000     0.830760000000     0.798800000000    -0.359518   
O126     O      0.188640000000     0.793220000000     0.903070000000    -0.368589   
O127     O      0.186930000000     0.935990000000     0.835860000000    -0.365546   
O128     O      0.143840000000     0.834810000000     0.802440000000    -0.355519   
O129     O      0.145150000000     0.893610000000     0.939730000000    -0.349544   
O130     O      0.143010000000     0.929850000000     0.843020000000    -0.364122   
O131     O      0.139260000000     0.804200000000     0.892640000000    -0.367821   
O132     O      0.139500000000     0.842710000000     0.931640000000    -0.366985   
O133     O      0.142700000000     0.891300000000     0.803980000000    -0.356886   
O134     O      0.144580000000     0.795750000000     0.840940000000    -0.347054   
O135     O      0.144810000000     0.931690000000     0.900220000000    -0.360027   
O136     O      0.178160000000     0.863950000000     0.870250000000    -0.587081   
O137     O      0.892770000000     0.545450000000     0.151040000000    -0.366215   
O138     O      0.893110000000     0.177880000000     0.595500000000    -0.368197   
O139     O      0.893260000000     0.140270000000     0.191320000000    -0.362596   
O140     O      0.894000000000     0.583620000000     0.555300000000    -0.359898   
O141     O      0.893070000000     0.178270000000     0.151720000000    -0.365446   
O142     O      0.894390000000     0.544350000000     0.593590000000    -0.364343   
O143     O      0.893100000000     0.139180000000     0.556630000000    -0.360596   
O144     O      0.892460000000     0.583830000000     0.190250000000    -0.359199   
O145     O      0.439660000000     0.541870000000     0.591410000000    -0.365164   
O146     O      0.437840000000     0.183000000000     0.156950000000    -0.360562   
O147     O      0.436800000000     0.578150000000     0.196850000000    -0.361078   
O148     O      0.442470000000     0.140440000000     0.556050000000    -0.355181   
O149     O      0.442410000000     0.178630000000     0.595460000000    -0.366924   
O150     O      0.436890000000     0.539610000000     0.157790000000    -0.364362   
O151     O      0.439050000000     0.579930000000     0.551890000000    -0.348805   
O152     O      0.438700000000     0.143720000000     0.195220000000    -0.363593   
O153     O      0.927530000000     0.611570000000     0.123970000000    -0.585678   
O154     O      0.686840000000     0.397270000000     0.297000000000    -0.360803   
O155     O      0.688900000000     0.331780000000     0.442060000000    -0.367099   
O156     O      0.689520000000     0.434040000000     0.403010000000    -0.366837   
O157     O      0.688440000000     0.292570000000     0.338210000000    -0.362276   
O158     O      0.689670000000     0.395360000000     0.441920000000    -0.360327   
O159     O      0.688310000000     0.330760000000     0.298800000000    -0.35952    
O160     O      0.688640000000     0.293220000000     0.403070000000    -0.368589   
O161     O      0.686940000000     0.435990000000     0.335860000000    -0.365545   
O162     O      0.643840000000     0.334810000000     0.302440000000    -0.355518   
O163     O      0.645150000000     0.393610000000     0.439730000000    -0.349544   
O164     O      0.643010000000     0.429850000000     0.343020000000    -0.364131   
O165     O      0.639260000000     0.304200000000     0.392640000000    -0.367821   
O166     O      0.639500000000     0.342710000000     0.431640000000    -0.366986   
O167     O      0.642700000000     0.391300000000     0.303980000000    -0.356889   
O168     O      0.644580000000     0.295750000000     0.340940000000    -0.347053   
O169     O      0.644810000000     0.431690000000     0.400220000000    -0.360021   
O170     O      0.678160000000     0.363950000000     0.370250000000    -0.587073   
O171     O      0.892770000000     0.545450000000     0.651040000000    -0.366225   
O172     O      0.893110000000     0.177880000000     0.095500000000    -0.368199   
O173     O      0.893260000000     0.140270000000     0.691320000000    -0.362595   
O174     O      0.894000000000     0.583620000000     0.055300000000    -0.359849   
O175     O      0.893070000000     0.178270000000     0.651720000000    -0.365439   
O176     O      0.894390000000     0.544350000000     0.093600000000    -0.364253   
O177     O      0.893100000000     0.139180000000     0.056630000000    -0.360596   
O178     O      0.892460000000     0.583830000000     0.690250000000    -0.359202   
O179     O      0.439660000000     0.541870000000     0.091410000000    -0.36517    
O180     O      0.437840000000     0.183000000000     0.656960000000    -0.360652   
O181     O      0.436800000000     0.578150000000     0.696850000000    -0.361078   
O182     O      0.442470000000     0.140440000000     0.056050000000    -0.355179   
O183     O      0.442410000000     0.178630000000     0.095460000000    -0.366917   
O184     O      0.436890000000     0.539610000000     0.657790000000    -0.364359   
O185     O      0.439050000000     0.579930000000     0.051890000000    -0.348806   
O186     O      0.438700000000     0.143720000000     0.695220000000    -0.363643   
O187     O      0.927530000000     0.611570000000     0.623970000000    -0.585677   
O188     O      0.686840000000     0.397270000000     0.797000000000    -0.360803   
O189     O      0.688900000000     0.331780000000     0.942060000000    -0.367098   
O190     O      0.689520000000     0.434040000000     0.903010000000    -0.366837   
O191     O      0.688440000000     0.292570000000     0.838210000000    -0.362276   
O192     O      0.689670000000     0.395360000000     0.941920000000    -0.360327   
O193     O      0.688310000000     0.330760000000     0.798800000000    -0.359519   
O194     O      0.688640000000     0.293220000000     0.903070000000    -0.368589   
O195     O      0.686940000000     0.435990000000     0.835860000000    -0.365545   
O196     O      0.643840000000     0.334810000000     0.802440000000    -0.355517   
O197     O      0.645150000000     0.393610000000     0.939730000000    -0.349544   
O198     O      0.643010000000     0.429850000000     0.843020000000    -0.364131   
O199     O      0.639260000000     0.304200000000     0.892640000000    -0.367821   
O200     O      0.639500000000     0.342710000000     0.931640000000    -0.366985   
O201     O      0.642700000000     0.391300000000     0.803980000000    -0.356889   
O202     O      0.644580000000     0.295750000000     0.840940000000    -0.347053   
O203     O      0.644810000000     0.431690000000     0.900220000000    -0.360021   
O204     O      0.678160000000     0.363950000000     0.870250000000    -0.587073   
O205     O      0.892770000000     0.045450000000     0.151040000000    -0.366212   
O206     O      0.893110000000     0.677880000000     0.595500000000    -0.368197   
O207     O      0.893260000000     0.640270000000     0.191320000000    -0.362595   
O208     O      0.894000000000     0.083620000000     0.555300000000    -0.359799   
O209     O      0.893070000000     0.678270000000     0.151720000000    -0.365446   
O210     O      0.894390000000     0.044350000000     0.593590000000    -0.364372   
O211     O      0.893100000000     0.639180000000     0.556630000000    -0.360593   
O212     O      0.892460000000     0.083830000000     0.190250000000    -0.359201   
O213     O      0.439660000000     0.041870000000     0.591410000000    -0.365161   
O214     O      0.437840000000     0.683000000000     0.156950000000    -0.360562   
O215     O      0.436800000000     0.078150000000     0.196850000000    -0.361078   
O216     O      0.442470000000     0.640440000000     0.556050000000    -0.355182   
O217     O      0.442410000000     0.678630000000     0.595460000000    -0.366924   
O218     O      0.436890000000     0.039610000000     0.157790000000    -0.364357   
O219     O      0.439050000000     0.079930000000     0.551890000000    -0.348808   
O220     O      0.438700000000     0.643720000000     0.195220000000    -0.363593   
O221     O      0.927530000000     0.111570000000     0.123970000000    -0.585677   
O222     O      0.686840000000     0.897270000000     0.297000000000    -0.360803   
O223     O      0.688900000000     0.831780000000     0.442060000000    -0.367099   
O224     O      0.689520000000     0.934040000000     0.403010000000    -0.366838   
O225     O      0.688440000000     0.792570000000     0.338210000000    -0.362275   
O226     O      0.689670000000     0.895360000000     0.441920000000    -0.360327   
O227     O      0.688310000000     0.830760000000     0.298800000000    -0.359517   
O228     O      0.688640000000     0.793220000000     0.403070000000    -0.368589   
O229     O      0.686940000000     0.935990000000     0.335860000000    -0.365546   
O230     O      0.643840000000     0.834810000000     0.302440000000    -0.355518   
O231     O      0.645150000000     0.893610000000     0.439730000000    -0.349545   
O232     O      0.643010000000     0.929850000000     0.343020000000    -0.364132   
O233     O      0.639260000000     0.804200000000     0.392640000000    -0.367821   
O234     O      0.639500000000     0.842710000000     0.431640000000    -0.366985   
O235     O      0.642700000000     0.891300000000     0.303980000000    -0.356889   
O236     O      0.644580000000     0.795750000000     0.340940000000    -0.347053   
O237     O      0.644810000000     0.931690000000     0.400220000000    -0.360022   
O238     O      0.678160000000     0.863950000000     0.370250000000    -0.587073   
O239     O      0.892770000000     0.045450000000     0.651040000000    -0.366222   
O240     O      0.893110000000     0.677880000000     0.095500000000    -0.368199   
O241     O      0.893260000000     0.640270000000     0.691320000000    -0.362594   
O242     O      0.894000000000     0.083620000000     0.055300000000    -0.35975    
O243     O      0.893070000000     0.678270000000     0.651720000000    -0.365439   
O244     O      0.894390000000     0.044350000000     0.093600000000    -0.364282   
O245     O      0.893100000000     0.639180000000     0.056630000000    -0.360594   
O246     O      0.892460000000     0.083830000000     0.690250000000    -0.359204   
O247     O      0.439660000000     0.041870000000     0.091410000000    -0.365167   
O248     O      0.437840000000     0.683000000000     0.656960000000    -0.360652   
O249     O      0.436800000000     0.078150000000     0.696850000000    -0.361078   
O250     O      0.442470000000     0.640440000000     0.056050000000    -0.35518    
O251     O      0.442410000000     0.678630000000     0.095460000000    -0.366917   
O252     O      0.436890000000     0.039610000000     0.657790000000    -0.364354   
O253     O      0.439050000000     0.079930000000     0.051890000000    -0.348809   
O254     O      0.438700000000     0.643720000000     0.695220000000    -0.363643   
O255     O      0.927530000000     0.111570000000     0.623970000000    -0.585675   
O256     O      0.686840000000     0.897270000000     0.797000000000    -0.360803   
O257     O      0.688900000000     0.831780000000     0.942060000000    -0.367098   
O258     O      0.689520000000     0.934040000000     0.903010000000    -0.366838   
O259     O      0.688440000000     0.792570000000     0.838210000000    -0.362275   
O260     O      0.689670000000     0.895360000000     0.941920000000    -0.360327   
O261     O      0.688310000000     0.830760000000     0.798800000000    -0.359517   
O262     O      0.688640000000     0.793220000000     0.903070000000    -0.368589   
O263     O      0.686940000000     0.935990000000     0.835860000000    -0.365546   
O264     O      0.643840000000     0.834810000000     0.802440000000    -0.355517   
O265     O      0.645150000000     0.893610000000     0.939730000000    -0.349544   
O266     O      0.643010000000     0.929850000000     0.843020000000    -0.364132   
O267     O      0.639260000000     0.804200000000     0.892640000000    -0.367821   
O268     O      0.639500000000     0.842710000000     0.931640000000    -0.366985   
O269     O      0.642700000000     0.891300000000     0.803980000000    -0.356889   
O270     O      0.644580000000     0.795750000000     0.840940000000    -0.347053   
O271     O      0.644810000000     0.931690000000     0.900220000000    -0.360022   
O272     O      0.678160000000     0.863950000000     0.870250000000    -0.587073   


