data_structure

_audit_creation_method RASPA-1.0
_audit_creation_date 2023-5-25
_audit_author_name 'Poobodin Mano'

_cell_length_a    50.7322
_cell_length_b    48.6064
_cell_length_c    48.6239
_cell_angle_alpha 90
_cell_angle_beta  90
_cell_angle_gamma 90
_cell_volume      119902

_symmetry_cell_setting          triclinic
_symmetry_space_group_name_Hall 'P 1'
_symmetry_space_group_name_H-M  'P 1'
_symmetry_Int_Tables_number     1

_symmetry_equiv_pos_as_xyz 'x,y,z'

loop_
_atom_site_label
_atom_site_type_symbol
_atom_site_fract_x
_atom_site_fract_y
_atom_site_fract_z
_atom_site_charge
C1       C      0.030350000000     0.468670000000     0.061370000000     0.388525   
C2       C      0.029890000000     0.062320000000     0.469090000000     0.397396   
C3       C      0.024660000000     0.465190000000     0.465250000000     0.398559   
C4       C      0.024730000000     0.065580000000     0.065190000000     0.388169   
C5       C      0.452780000000     0.060400000000     0.061220000000     0.396751   
C6       C      0.453090000000     0.469860000000     0.469380000000     0.398602   
C7       C      0.465000000000     0.462090000000     0.068740000000     0.40075    
C8       C      0.464940000000     0.068680000000     0.461920000000     0.3954     
C9       C      0.272350000000     0.318410000000     0.212390000000     0.396741   
C10      C      0.272280000000     0.212160000000     0.318200000000     0.402551   
C11      C      0.283220000000     0.311710000000     0.310710000000     0.406346   
C12      C      0.283130000000     0.218640000000     0.219930000000     0.408406   
C13      C      0.211600000000     0.215500000000     0.215250000000     0.398428   
C14      C      0.211370000000     0.314980000000     0.315200000000     0.388558   
C15      C      0.207020000000     0.311700000000     0.217910000000     0.398097   
C16      C      0.206620000000     0.219080000000     0.312400000000     0.388702   
C17      C      0.162900000000     0.196750000000     0.160770000000    -0.0313224  
C18      C      0.073790000000     0.084790000000     0.119110000000    -0.0291941  
C19      C      0.047140000000     0.110030000000     0.072310000000    -0.00922873 
C20      C      0.047420000000     0.072990000000     0.109430000000    -0.00901815 
C21      C      0.123120000000     0.120910000000     0.119850000000    -0.0562929  
C22      C      0.113140000000     0.160990000000     0.159830000000    -0.0560568  
C23      C      0.096920000000     0.127680000000     0.126600000000     0.0614766  
C24      C      0.073540000000     0.119940000000     0.083840000000    -0.0290825  
C25      C      0.139340000000     0.154140000000     0.153160000000     0.0615997  
C26      C      0.162300000000     0.161790000000     0.196190000000    -0.078073   
C27      C      0.144090000000     0.134060000000     0.133080000000    -0.0527205  
C28      C      0.188840000000     0.171230000000     0.208050000000     0.168195   
C29      C      0.189280000000     0.208250000000     0.170790000000    -0.000942498
C30      C      0.092170000000     0.147810000000     0.146620000000    -0.0537345  
C31      C      0.079740000000     0.081740000000     0.415150000000    -0.0318629  
C32      C      0.156930000000     0.200380000000     0.366780000000    -0.0288912  
C33      C      0.181590000000     0.176300000000     0.318110000000    -0.00931833 
C34      C      0.182010000000     0.213680000000     0.355510000000    -0.0083638  
C35      C      0.110310000000     0.160700000000     0.371650000000    -0.0563576  
C36      C      0.126090000000     0.121710000000     0.410690000000    -0.0558803  
C37      C      0.137330000000     0.156030000000     0.376300000000     0.0622385  
C38      C      0.156530000000     0.165340000000     0.331670000000    -0.02836    
C39      C      0.099070000000     0.126300000000     0.405950000000     0.0620266  
C40      C      0.079430000000     0.116680000000     0.450350000000    -0.0783469  
C41      C      0.091400000000     0.145900000000     0.386400000000    -0.0525077  
C42      C      0.054010000000     0.105740000000     0.463460000000     0.168854   
C43      C      0.054680000000     0.068190000000     0.426180000000    -0.000572781
C44      C      0.145000000000     0.136490000000     0.395910000000    -0.0537335  
C45      C      0.157320000000     0.365700000000     0.198330000000    -0.0319233  
C46      C      0.080500000000     0.414630000000     0.079810000000    -0.0287364  
C47      C      0.055500000000     0.463040000000     0.104070000000    -0.00918493 
C48      C      0.055400000000     0.425810000000     0.066490000000    -0.00846092 
C49      C      0.126960000000     0.409710000000     0.119670000000    -0.0563781  
C50      C      0.111160000000     0.370200000000     0.158180000000    -0.0558244  
C51      C      0.099940000000     0.404900000000     0.124160000000     0.0622805  
C52      C      0.080580000000     0.449530000000     0.115050000000    -0.0283642  
C53      C      0.138180000000     0.375100000000     0.153760000000     0.062028   
C54      C      0.157960000000     0.330700000000     0.163190000000    -0.0783383  
C55      C      0.145860000000     0.394890000000     0.134410000000    -0.052603   
C56      C      0.183340000000     0.317600000000     0.174260000000     0.168794   
C57      C      0.182330000000     0.354680000000     0.211960000000    -0.000312605
C58      C      0.092260000000     0.385050000000     0.143450000000    -0.0535947  
C59      C      0.326610000000     0.196330000000     0.163360000000    -0.0313598  
C60      C      0.409570000000     0.081200000000     0.118460000000    -0.0294317  
C61      C      0.418630000000     0.096660000000     0.061310000000    -0.0080574  
C62      C      0.419050000000     0.059570000000     0.097900000000    -0.00822324 
C63      C      0.353310000000     0.121320000000     0.123730000000    -0.0535547  
C64      C      0.382180000000     0.155670000000     0.158690000000    -0.0527962  
C65      C      0.380880000000     0.120580000000     0.123090000000     0.0619437  
C66      C      0.409210000000     0.116820000000     0.083310000000    -0.0293439  
C67      C      0.354610000000     0.156420000000     0.159320000000     0.0624505  
C68      C      0.325510000000     0.160770000000     0.198480000000    -0.0784263  
C69      C      0.340180000000     0.139090000000     0.141650000000    -0.056133   
C70      C      0.316030000000     0.181120000000     0.220460000000     0.169405   
C71      C      0.317220000000     0.218210000000     0.183660000000     0.000742631
C72      C      0.395310000000     0.137930000000     0.140740000000    -0.0560172  
C73      C      0.326850000000     0.333700000000     0.367260000000    -0.0312591  
C74      C      0.409960000000     0.448730000000     0.412130000000    -0.0298287  
C75      C      0.419280000000     0.433260000000     0.469230000000    -0.00738512 
C76      C      0.419410000000     0.470390000000     0.432650000000    -0.00716608 
C77      C      0.353760000000     0.408560000000     0.407030000000    -0.0540506  
C78      C      0.382540000000     0.374250000000     0.371930000000    -0.052237   
C79      C      0.381340000000     0.409290000000     0.407590000000     0.062387   
C80      C      0.409860000000     0.413090000000     0.447240000000    -0.0296155  
C81      C      0.354970000000     0.373520000000     0.371370000000     0.0620995  
C82      C      0.325850000000     0.369340000000     0.332220000000    -0.0781788  
C83      C      0.340590000000     0.390830000000     0.389100000000    -0.0558448  
C84      C      0.316280000000     0.349070000000     0.310210000000     0.168765   
C85      C      0.317360000000     0.311910000000     0.346920000000     0.000225896
C86      C      0.395720000000     0.391960000000     0.389880000000    -0.0562405  
C87      C      0.319860000000     0.193040000000     0.372190000000    -0.0314464  
C88      C      0.418280000000     0.087660000000     0.407200000000    -0.0291183  
C89      C      0.445450000000     0.114480000000     0.452700000000    -0.00856286 
C90      C      0.445600000000     0.077630000000     0.416000000000    -0.00861062 
C91      C      0.393960000000     0.148860000000     0.380890000000    -0.0533717  
C92      C      0.344030000000     0.131690000000     0.398200000000    -0.0526408  
C93      C      0.391830000000     0.128650000000     0.401310000000     0.061839   
C94      C      0.418130000000     0.123120000000     0.442520000000    -0.029168   
C95      C      0.346160000000     0.151930000000     0.377820000000     0.0617791  
C96      C      0.319720000000     0.157800000000     0.336730000000    -0.0782072  
C97      C      0.371370000000     0.160460000000     0.369190000000    -0.0558095  
C98      C      0.292240000000     0.166420000000     0.326650000000     0.168724   
C99      C      0.292530000000     0.203210000000     0.363640000000     0.000339491
C100     C      0.366610000000     0.120090000000     0.409900000000    -0.0561598  
C101     C      0.073310000000     0.410770000000     0.446240000000    -0.0314009  
C102     C      0.161950000000     0.368740000000     0.334080000000    -0.0293088  
C103     C      0.188800000000     0.322150000000     0.359530000000    -0.00902885 
C104     C      0.188320000000     0.359070000000     0.322250000000    -0.0089712  
C105     C      0.143760000000     0.396660000000     0.396960000000    -0.0537559  
C106     C      0.091810000000     0.382880000000     0.383580000000    -0.0526876  
C107     C      0.138970000000     0.376480000000     0.377000000000     0.061408   
C108     C      0.162390000000     0.333690000000     0.369430000000    -0.0292552  
C109     C      0.096600000000     0.403090000000     0.403500000000     0.0617558  
C110     C      0.073510000000     0.446070000000     0.411150000000    -0.077972   
C111     C      0.122820000000     0.409900000000     0.410160000000    -0.0560992  
C112     C      0.046990000000     0.457870000000     0.420760000000     0.168156   
C113     C      0.046970000000     0.420720000000     0.457890000000    -0.000805313
C114     C      0.112760000000     0.369620000000     0.370400000000    -0.0560755  
C115     C      0.417860000000     0.407840000000     0.088080000000    -0.0312796  
C116     C      0.319810000000     0.372700000000     0.193880000000    -0.0294808  
C117     C      0.292310000000     0.327540000000     0.166830000000    -0.00812496 
C118     C      0.292450000000     0.364060000000     0.203920000000    -0.00795809 
C119     C      0.371350000000     0.369990000000     0.161190000000    -0.0562363  
C120     C      0.366540000000     0.410850000000     0.120970000000    -0.0556893  
C121     C      0.346120000000     0.378730000000     0.152800000000     0.0620521  
C122     C      0.319680000000     0.337590000000     0.158250000000    -0.0292918  
C123     C      0.391770000000     0.402090000000     0.129320000000     0.0615768  
C124     C      0.418310000000     0.443110000000     0.123520000000    -0.0778861  
C125     C      0.393920000000     0.381630000000     0.149490000000    -0.052186   
C126     C      0.445730000000     0.453200000000     0.114720000000     0.168399   
C127     C      0.445130000000     0.416450000000     0.077750000000    -0.000206541
C128     C      0.343970000000     0.399210000000     0.132660000000    -0.0538451  
C129     C      0.030350000000     0.468670000000     0.561370000000     0.388551   
C130     C      0.029890000000     0.062320000000     0.969090000000     0.397531   
C131     C      0.024660000000     0.465190000000     0.965250000000     0.398543   
C132     C      0.024730000000     0.065580000000     0.565200000000     0.388273   
C133     C      0.452780000000     0.060400000000     0.561220000000     0.396776   
C134     C      0.453090000000     0.469860000000     0.969380000000     0.398523   
C135     C      0.465000000000     0.462090000000     0.568740000000     0.400774   
C136     C      0.464940000000     0.068680000000     0.961920000000     0.395071   
C137     C      0.272350000000     0.318410000000     0.712390000000     0.396738   
C138     C      0.272280000000     0.212160000000     0.818200000000     0.402779   
C139     C      0.283220000000     0.311710000000     0.810710000000     0.406413   
C140     C      0.283130000000     0.218640000000     0.719930000000     0.408477   
C141     C      0.211600000000     0.215500000000     0.715250000000     0.398429   
C142     C      0.211370000000     0.314980000000     0.815200000000     0.388328   
C143     C      0.207020000000     0.311700000000     0.717910000000     0.398092   
C144     C      0.206620000000     0.219080000000     0.812410000000     0.388661   
C145     C      0.162900000000     0.196750000000     0.660770000000    -0.0313262  
C146     C      0.073790000000     0.084790000000     0.619110000000    -0.0291456  
C147     C      0.047140000000     0.110030000000     0.572310000000    -0.00921359 
C148     C      0.047420000000     0.072990000000     0.609440000000    -0.00912927 
C149     C      0.123120000000     0.120910000000     0.619850000000    -0.056279   
C150     C      0.113140000000     0.160990000000     0.659830000000    -0.0560382  
C151     C      0.096920000000     0.127680000000     0.626600000000     0.0614864  
C152     C      0.073540000000     0.119940000000     0.583840000000    -0.029084   
C153     C      0.139340000000     0.154140000000     0.653150000000     0.0615964  
C154     C      0.162300000000     0.161790000000     0.696190000000    -0.078086   
C155     C      0.144090000000     0.134060000000     0.633080000000    -0.0527206  
C156     C      0.188840000000     0.171230000000     0.708050000000     0.168232   
C157     C      0.189280000000     0.208250000000     0.670790000000    -0.000941868
C158     C      0.092170000000     0.147810000000     0.646620000000    -0.0537356  
C159     C      0.079740000000     0.081740000000     0.915150000000    -0.0318741  
C160     C      0.156930000000     0.200380000000     0.866780000000    -0.0288905  
C161     C      0.181590000000     0.176300000000     0.818110000000    -0.00930419 
C162     C      0.182010000000     0.213680000000     0.855510000000    -0.00836702 
C163     C      0.110310000000     0.160700000000     0.871650000000    -0.0563514  
C164     C      0.126090000000     0.121710000000     0.910690000000    -0.05587    
C165     C      0.137330000000     0.156030000000     0.876300000000     0.0622444  
C166     C      0.156530000000     0.165340000000     0.831670000000    -0.0283646  
C167     C      0.099070000000     0.126300000000     0.905950000000     0.0620361  
C168     C      0.079430000000     0.116680000000     0.950350000000    -0.078424   
C169     C      0.091400000000     0.145900000000     0.886400000000    -0.0525029  
C170     C      0.054010000000     0.105740000000     0.963450000000     0.168945   
C171     C      0.054680000000     0.068190000000     0.926180000000    -0.000560331
C172     C      0.145000000000     0.136490000000     0.895910000000    -0.0537178  
C173     C      0.157320000000     0.365700000000     0.698330000000    -0.0319066  
C174     C      0.080500000000     0.414630000000     0.579810000000    -0.0287356  
C175     C      0.055500000000     0.463040000000     0.604070000000    -0.00917805 
C176     C      0.055400000000     0.425810000000     0.566490000000    -0.00846551 
C177     C      0.126960000000     0.409710000000     0.619670000000    -0.0563684  
C178     C      0.111160000000     0.370200000000     0.658170000000    -0.0557612  
C179     C      0.099940000000     0.404900000000     0.624160000000     0.0622755  
C180     C      0.080580000000     0.449530000000     0.615050000000    -0.0283684  
C181     C      0.138180000000     0.375100000000     0.653760000000     0.0620081  
C182     C      0.157960000000     0.330700000000     0.663190000000    -0.07834    
C183     C      0.145860000000     0.394890000000     0.634410000000    -0.0525807  
C184     C      0.183340000000     0.317600000000     0.674260000000     0.168795   
C185     C      0.182330000000     0.354680000000     0.711970000000    -0.000391159
C186     C      0.092260000000     0.385050000000     0.643460000000    -0.0535906  
C187     C      0.326610000000     0.196330000000     0.663360000000    -0.0314281  
C188     C      0.409570000000     0.081200000000     0.618460000000    -0.0294283  
C189     C      0.418630000000     0.096660000000     0.561310000000    -0.00807044 
C190     C      0.419050000000     0.059570000000     0.597900000000    -0.00822653 
C191     C      0.353310000000     0.121320000000     0.623730000000    -0.0535562  
C192     C      0.382180000000     0.155670000000     0.658690000000    -0.0527663  
C193     C      0.380880000000     0.120580000000     0.623090000000     0.0619642  
C194     C      0.409210000000     0.116820000000     0.583310000000    -0.029335   
C195     C      0.354610000000     0.156420000000     0.659320000000     0.0624063  
C196     C      0.325510000000     0.160770000000     0.698480000000    -0.0784694  
C197     C      0.340180000000     0.139090000000     0.641650000000    -0.0560994  
C198     C      0.316030000000     0.181120000000     0.720450000000     0.169435   
C199     C      0.317220000000     0.218210000000     0.683660000000     0.00071596 
C200     C      0.395310000000     0.137930000000     0.640740000000    -0.0560264  
C201     C      0.326850000000     0.333700000000     0.867260000000    -0.031251   
C202     C      0.409960000000     0.448730000000     0.912130000000    -0.0298526  
C203     C      0.419280000000     0.433260000000     0.969230000000    -0.00748866 
C204     C      0.419410000000     0.470390000000     0.932650000000    -0.00708597 
C205     C      0.353760000000     0.408560000000     0.907030000000    -0.0540412  
C206     C      0.382540000000     0.374250000000     0.871930000000    -0.0522269  
C207     C      0.381340000000     0.409290000000     0.907590000000     0.0624031  
C208     C      0.409860000000     0.413090000000     0.947230000000    -0.0295298  
C209     C      0.354970000000     0.373520000000     0.871370000000     0.0621002  
C210     C      0.325850000000     0.369340000000     0.832210000000    -0.0782934  
C211     C      0.340590000000     0.390830000000     0.889100000000    -0.0558298  
C212     C      0.316280000000     0.349070000000     0.810210000000     0.168874   
C213     C      0.317360000000     0.311910000000     0.846920000000     0.000177383
C214     C      0.395720000000     0.391960000000     0.889880000000    -0.0562394  
C215     C      0.319860000000     0.193040000000     0.872190000000    -0.0314529  
C216     C      0.418280000000     0.087660000000     0.907200000000    -0.0291391  
C217     C      0.445450000000     0.114480000000     0.952700000000    -0.00862822 
C218     C      0.445600000000     0.077630000000     0.916000000000    -0.00855723 
C219     C      0.393960000000     0.148860000000     0.880890000000    -0.053377   
C220     C      0.344030000000     0.131690000000     0.898200000000    -0.0526072  
C221     C      0.391830000000     0.128650000000     0.901310000000     0.0618666  
C222     C      0.418130000000     0.123120000000     0.942520000000    -0.0291491  
C223     C      0.346160000000     0.151930000000     0.877820000000     0.0617769  
C224     C      0.319720000000     0.157800000000     0.836730000000    -0.0782528  
C225     C      0.371370000000     0.160460000000     0.869190000000    -0.0557961  
C226     C      0.292240000000     0.166420000000     0.826650000000     0.168843   
C227     C      0.292530000000     0.203210000000     0.863640000000     0.000346739
C228     C      0.366610000000     0.120090000000     0.909910000000    -0.0561995  
C229     C      0.073310000000     0.410770000000     0.946240000000    -0.0314029  
C230     C      0.161950000000     0.368740000000     0.834080000000    -0.0293053  
C231     C      0.188800000000     0.322150000000     0.859530000000    -0.00900766 
C232     C      0.188320000000     0.359070000000     0.822250000000    -0.00898579 
C233     C      0.143760000000     0.396660000000     0.896950000000    -0.0537701  
C234     C      0.091810000000     0.382880000000     0.883580000000    -0.0526759  
C235     C      0.138970000000     0.376480000000     0.877000000000     0.0614418  
C236     C      0.162390000000     0.333690000000     0.869430000000    -0.0292504  
C237     C      0.096600000000     0.403090000000     0.903500000000     0.0617637  
C238     C      0.073510000000     0.446070000000     0.911150000000    -0.0779499  
C239     C      0.122820000000     0.409900000000     0.910160000000    -0.0560833  
C240     C      0.046990000000     0.457870000000     0.920770000000     0.168144   
C241     C      0.046970000000     0.420720000000     0.957890000000    -0.000806133
C242     C      0.112760000000     0.369620000000     0.870400000000    -0.0560807  
C243     C      0.417860000000     0.407840000000     0.588080000000    -0.0312757  
C244     C      0.319810000000     0.372700000000     0.693880000000    -0.0294515  
C245     C      0.292310000000     0.327540000000     0.666830000000    -0.00812901 
C246     C      0.292450000000     0.364060000000     0.703930000000    -0.00803198 
C247     C      0.371350000000     0.369990000000     0.661190000000    -0.0562706  
C248     C      0.366540000000     0.410850000000     0.620970000000    -0.0556751  
C249     C      0.346120000000     0.378730000000     0.652800000000     0.0620739  
C250     C      0.319680000000     0.337590000000     0.658250000000    -0.02929    
C251     C      0.391770000000     0.402090000000     0.629320000000     0.0615836  
C252     C      0.418310000000     0.443110000000     0.623520000000    -0.0778887  
C253     C      0.393920000000     0.381630000000     0.649490000000    -0.0521829  
C254     C      0.445730000000     0.453200000000     0.614720000000     0.168402   
C255     C      0.445130000000     0.416450000000     0.577750000000    -0.000216533
C256     C      0.343970000000     0.399210000000     0.632660000000    -0.053837   
C257     C      0.030350000000     0.968670000000     0.061370000000     0.388504   
C258     C      0.029890000000     0.562320000000     0.469090000000     0.397419   
C259     C      0.024660000000     0.965190000000     0.465250000000     0.398536   
C260     C      0.024730000000     0.565580000000     0.065190000000     0.388188   
C261     C      0.452780000000     0.560400000000     0.061220000000     0.396774   
C262     C      0.453090000000     0.969860000000     0.469380000000     0.39858    
C263     C      0.465000000000     0.962090000000     0.068740000000     0.400726   
C264     C      0.464940000000     0.568680000000     0.461920000000     0.39542    
C265     C      0.272350000000     0.818410000000     0.212390000000     0.396739   
C266     C      0.272280000000     0.712160000000     0.318200000000     0.402683   
C267     C      0.283220000000     0.811710000000     0.310710000000     0.406346   
C268     C      0.283130000000     0.718640000000     0.219930000000     0.408406   
C269     C      0.211600000000     0.715500000000     0.215250000000     0.39843    
C270     C      0.211370000000     0.814980000000     0.315200000000     0.388555   
C271     C      0.207020000000     0.811700000000     0.217910000000     0.398095   
C272     C      0.206620000000     0.719080000000     0.312400000000     0.388703   
C273     C      0.162900000000     0.696750000000     0.160770000000    -0.03134    
C274     C      0.073790000000     0.584790000000     0.119110000000    -0.0291922  
C275     C      0.047140000000     0.610030000000     0.072310000000    -0.00924084 
C276     C      0.047420000000     0.572990000000     0.109430000000    -0.00902224 
C277     C      0.123120000000     0.620910000000     0.119850000000    -0.0562718  
C278     C      0.113140000000     0.660990000000     0.159830000000    -0.0560459  
C279     C      0.096920000000     0.627690000000     0.126600000000     0.0614784  
C280     C      0.073540000000     0.619940000000     0.083840000000    -0.0290818  
C281     C      0.139340000000     0.654140000000     0.153160000000     0.0616029  
C282     C      0.162300000000     0.661790000000     0.196190000000    -0.0780765  
C283     C      0.144090000000     0.634060000000     0.133080000000    -0.0527115  
C284     C      0.188840000000     0.671230000000     0.208050000000     0.168198   
C285     C      0.189280000000     0.708250000000     0.170790000000    -0.000937356
C286     C      0.092170000000     0.647810000000     0.146620000000    -0.0537459  
C287     C      0.079740000000     0.581740000000     0.415150000000    -0.0318612  
C288     C      0.156930000000     0.700380000000     0.366780000000    -0.0288372  
C289     C      0.181590000000     0.676300000000     0.318110000000    -0.00931343 
C290     C      0.182010000000     0.713680000000     0.355510000000    -0.0083821  
C291     C      0.110310000000     0.660700000000     0.371650000000    -0.0563377  
C292     C      0.126090000000     0.621710000000     0.410690000000    -0.055889   
C293     C      0.137330000000     0.656030000000     0.376300000000     0.0622089  
C294     C      0.156530000000     0.665340000000     0.331670000000    -0.0283776  
C295     C      0.099070000000     0.626300000000     0.405950000000     0.0620643  
C296     C      0.079430000000     0.616680000000     0.450350000000    -0.0783499  
C297     C      0.091400000000     0.645890000000     0.386400000000    -0.0525278  
C298     C      0.054010000000     0.605740000000     0.463460000000     0.168858   
C299     C      0.054680000000     0.568190000000     0.426180000000    -0.00057761 
C300     C      0.145000000000     0.636490000000     0.395910000000    -0.053701   
C301     C      0.157320000000     0.865700000000     0.198330000000    -0.0319248  
C302     C      0.080500000000     0.914630000000     0.079810000000    -0.0287409  
C303     C      0.055500000000     0.963040000000     0.104070000000    -0.00919285 
C304     C      0.055400000000     0.925810000000     0.066490000000    -0.00845367 
C305     C      0.126960000000     0.909710000000     0.119670000000    -0.0563686  
C306     C      0.111160000000     0.870200000000     0.158180000000    -0.0558185  
C307     C      0.099940000000     0.904900000000     0.124160000000     0.0622906  
C308     C      0.080580000000     0.949530000000     0.115050000000    -0.0283625  
C309     C      0.138180000000     0.875100000000     0.153760000000     0.0620339  
C310     C      0.157960000000     0.830700000000     0.163190000000    -0.0783389  
C311     C      0.145860000000     0.894890000000     0.134410000000    -0.0525872  
C312     C      0.183340000000     0.817600000000     0.174260000000     0.168793   
C313     C      0.182330000000     0.854680000000     0.211960000000    -0.000313815
C314     C      0.092260000000     0.885050000000     0.143450000000    -0.0535898  
C315     C      0.326610000000     0.696330000000     0.163360000000    -0.0313621  
C316     C      0.409570000000     0.581200000000     0.118460000000    -0.0294314  
C317     C      0.418630000000     0.596660000000     0.061310000000    -0.00805223 
C318     C      0.419050000000     0.559570000000     0.097900000000    -0.00820561 
C319     C      0.353310000000     0.621320000000     0.123730000000    -0.0535368  
C320     C      0.382180000000     0.655670000000     0.158690000000    -0.0528342  
C321     C      0.380880000000     0.620580000000     0.123090000000     0.0619486  
C322     C      0.409210000000     0.616820000000     0.083310000000    -0.0293424  
C323     C      0.354610000000     0.656420000000     0.159320000000     0.0624729  
C324     C      0.325510000000     0.660770000000     0.198480000000    -0.0784324  
C325     C      0.340180000000     0.639090000000     0.141650000000    -0.0561301  
C326     C      0.316030000000     0.681120000000     0.220460000000     0.169409   
C327     C      0.317220000000     0.718210000000     0.183660000000     0.00074285 
C328     C      0.395310000000     0.637930000000     0.140740000000    -0.0559944  
C329     C      0.326850000000     0.833700000000     0.367260000000    -0.0312623  
C330     C      0.409960000000     0.948730000000     0.412130000000    -0.0298179  
C331     C      0.419280000000     0.933260000000     0.469230000000    -0.00738816 
C332     C      0.419410000000     0.970390000000     0.432650000000    -0.00718405 
C333     C      0.353760000000     0.908560000000     0.407030000000    -0.0540395  
C334     C      0.382540000000     0.874250000000     0.371930000000    -0.0522281  
C335     C      0.381340000000     0.909290000000     0.407590000000     0.0624021  
C336     C      0.409860000000     0.913090000000     0.447240000000    -0.029612   
C337     C      0.354970000000     0.873520000000     0.371370000000     0.062103   
C338     C      0.325850000000     0.869340000000     0.332220000000    -0.0781856  
C339     C      0.340590000000     0.890830000000     0.389100000000    -0.0558305  
C340     C      0.316280000000     0.849070000000     0.310210000000     0.168769   
C341     C      0.317360000000     0.811910000000     0.346920000000     0.000226418
C342     C      0.395720000000     0.891960000000     0.389880000000    -0.056238   
C343     C      0.319860000000     0.693040000000     0.372190000000    -0.0314483  
C344     C      0.418280000000     0.587660000000     0.407200000000    -0.0291193  
C345     C      0.445450000000     0.614480000000     0.452700000000    -0.00857335 
C346     C      0.445600000000     0.577630000000     0.416000000000    -0.00861209 
C347     C      0.393960000000     0.648860000000     0.380890000000    -0.0533677  
C348     C      0.344030000000     0.631690000000     0.398200000000    -0.0526255  
C349     C      0.391830000000     0.628650000000     0.401310000000     0.0618497  
C350     C      0.418130000000     0.623120000000     0.442520000000    -0.0291254  
C351     C      0.346160000000     0.651930000000     0.377820000000     0.0617851  
C352     C      0.319720000000     0.657800000000     0.336730000000    -0.0782115  
C353     C      0.371370000000     0.660460000000     0.369190000000    -0.055804   
C354     C      0.292240000000     0.666420000000     0.326650000000     0.16873    
C355     C      0.292530000000     0.703210000000     0.363640000000     0.000343834
C356     C      0.366610000000     0.620090000000     0.409900000000    -0.0561503  
C357     C      0.073310000000     0.910770000000     0.446240000000    -0.0314061  
C358     C      0.161950000000     0.868740000000     0.334080000000    -0.0293032  
C359     C      0.188800000000     0.822150000000     0.359530000000    -0.0090305  
C360     C      0.188320000000     0.859070000000     0.322250000000    -0.00899098 
C361     C      0.143760000000     0.896660000000     0.396960000000    -0.053743   
C362     C      0.091810000000     0.882870000000     0.383580000000    -0.0526748  
C363     C      0.138970000000     0.876480000000     0.377000000000     0.0614131  
C364     C      0.162390000000     0.833690000000     0.369430000000    -0.0292553  
C365     C      0.096600000000     0.903090000000     0.403500000000     0.0617429  
C366     C      0.073510000000     0.946070000000     0.411150000000    -0.0780037  
C367     C      0.122820000000     0.909900000000     0.410160000000    -0.0560806  
C368     C      0.046990000000     0.957870000000     0.420760000000     0.16817    
C369     C      0.046970000000     0.920720000000     0.457890000000    -0.000797472
C370     C      0.112760000000     0.869620000000     0.370400000000    -0.0560639  
C371     C      0.417860000000     0.907840000000     0.088080000000    -0.0312849  
C372     C      0.319810000000     0.872700000000     0.193880000000    -0.0294659  
C373     C      0.292310000000     0.827540000000     0.166830000000    -0.00810892 
C374     C      0.292450000000     0.864060000000     0.203920000000    -0.00796551 
C375     C      0.371350000000     0.869990000000     0.161190000000    -0.0562456  
C376     C      0.366540000000     0.910850000000     0.120970000000    -0.055672   
C377     C      0.346120000000     0.878730000000     0.152800000000     0.0620878  
C378     C      0.319680000000     0.837590000000     0.158250000000    -0.0293467  
C379     C      0.391770000000     0.902090000000     0.129320000000     0.0615821  
C380     C      0.418310000000     0.943110000000     0.123520000000    -0.077893   
C381     C      0.393920000000     0.881630000000     0.149490000000    -0.0521739  
C382     C      0.445730000000     0.953200000000     0.114720000000     0.168405   
C383     C      0.445130000000     0.916450000000     0.077750000000    -0.000199449
C384     C      0.343970000000     0.899210000000     0.132660000000    -0.0538389  
C385     C      0.030350000000     0.968670000000     0.561370000000     0.38853    
C386     C      0.029890000000     0.562320000000     0.969090000000     0.397554   
C387     C      0.024660000000     0.965190000000     0.965250000000     0.398519   
C388     C      0.024730000000     0.565580000000     0.565200000000     0.388292   
C389     C      0.452780000000     0.560400000000     0.561220000000     0.396799   
C390     C      0.453090000000     0.969860000000     0.969380000000     0.398501   
C391     C      0.465000000000     0.962090000000     0.568740000000     0.40075    
C392     C      0.464940000000     0.568680000000     0.961920000000     0.395091   
C393     C      0.272350000000     0.818410000000     0.712390000000     0.396737   
C394     C      0.272280000000     0.712160000000     0.818200000000     0.40291    
C395     C      0.283220000000     0.811710000000     0.810710000000     0.406413   
C396     C      0.283130000000     0.718640000000     0.719930000000     0.408478   
C397     C      0.211600000000     0.715500000000     0.715250000000     0.39843    
C398     C      0.211370000000     0.814980000000     0.815200000000     0.388326   
C399     C      0.207020000000     0.811700000000     0.717910000000     0.39809    
C400     C      0.206620000000     0.719080000000     0.812410000000     0.388662   
C401     C      0.162900000000     0.696750000000     0.660770000000    -0.0313438  
C402     C      0.073790000000     0.584790000000     0.619110000000    -0.0291437  
C403     C      0.047140000000     0.610030000000     0.572310000000    -0.0092257  
C404     C      0.047420000000     0.572990000000     0.609440000000    -0.00913335 
C405     C      0.123120000000     0.620910000000     0.619850000000    -0.0562579  
C406     C      0.113140000000     0.660990000000     0.659830000000    -0.0560273  
C407     C      0.096920000000     0.627690000000     0.626600000000     0.0614883  
C408     C      0.073540000000     0.619940000000     0.583840000000    -0.0290833  
C409     C      0.139340000000     0.654140000000     0.653150000000     0.0615996  
C410     C      0.162300000000     0.661790000000     0.696190000000    -0.0780895  
C411     C      0.144090000000     0.634060000000     0.633080000000    -0.0527116  
C412     C      0.188840000000     0.671230000000     0.708050000000     0.168235   
C413     C      0.189280000000     0.708250000000     0.670790000000    -0.000936727
C414     C      0.092170000000     0.647810000000     0.646620000000    -0.053747   
C415     C      0.079740000000     0.581740000000     0.915150000000    -0.0318723  
C416     C      0.156930000000     0.700380000000     0.866780000000    -0.0288365  
C417     C      0.181590000000     0.676300000000     0.818110000000    -0.00929929 
C418     C      0.182010000000     0.713680000000     0.855510000000    -0.00838532 
C419     C      0.110310000000     0.660700000000     0.871650000000    -0.0563315  
C420     C      0.126090000000     0.621710000000     0.910690000000    -0.0558787  
C421     C      0.137330000000     0.656030000000     0.876300000000     0.0622147  
C422     C      0.156530000000     0.665340000000     0.831670000000    -0.0283822  
C423     C      0.099070000000     0.626300000000     0.905950000000     0.0620738  
C424     C      0.079430000000     0.616680000000     0.950350000000    -0.0784269  
C425     C      0.091400000000     0.645890000000     0.886400000000    -0.052523   
C426     C      0.054010000000     0.605740000000     0.963450000000     0.168949   
C427     C      0.054680000000     0.568190000000     0.926180000000    -0.000565152
C428     C      0.145000000000     0.636490000000     0.895910000000    -0.0536853  
C429     C      0.157320000000     0.865700000000     0.698330000000    -0.0319081  
C430     C      0.080500000000     0.914630000000     0.579810000000    -0.0287401  
C431     C      0.055500000000     0.963040000000     0.604070000000    -0.00918598 
C432     C      0.055400000000     0.925810000000     0.566490000000    -0.00845825 
C433     C      0.126960000000     0.909710000000     0.619670000000    -0.0563588  
C434     C      0.111160000000     0.870200000000     0.658170000000    -0.0557554  
C435     C      0.099940000000     0.904900000000     0.624160000000     0.0622857  
C436     C      0.080580000000     0.949530000000     0.615050000000    -0.0283666  
C437     C      0.138180000000     0.875100000000     0.653760000000     0.062014   
C438     C      0.157960000000     0.830700000000     0.663190000000    -0.0783405  
C439     C      0.145860000000     0.894890000000     0.634410000000    -0.0525649  
C440     C      0.183340000000     0.817600000000     0.674260000000     0.168794   
C441     C      0.182330000000     0.854680000000     0.711970000000    -0.000392371
C442     C      0.092260000000     0.885050000000     0.643460000000    -0.0535857  
C443     C      0.326610000000     0.696330000000     0.663360000000    -0.0314305  
C444     C      0.409570000000     0.581200000000     0.618460000000    -0.029428   
C445     C      0.418630000000     0.596660000000     0.561310000000    -0.00806528 
C446     C      0.419050000000     0.559570000000     0.597900000000    -0.00820892 
C447     C      0.353310000000     0.621320000000     0.623730000000    -0.0535383  
C448     C      0.382180000000     0.655670000000     0.658690000000    -0.0528043  
C449     C      0.380880000000     0.620580000000     0.623090000000     0.0619692  
C450     C      0.409210000000     0.616820000000     0.583310000000    -0.0293336  
C451     C      0.354610000000     0.656420000000     0.659320000000     0.0624287  
C452     C      0.325510000000     0.660770000000     0.698480000000    -0.0784755  
C453     C      0.340180000000     0.639090000000     0.641650000000    -0.0560965  
C454     C      0.316030000000     0.681120000000     0.720450000000     0.169439   
C455     C      0.317220000000     0.718210000000     0.683660000000     0.000716183
C456     C      0.395310000000     0.637930000000     0.640740000000    -0.0560036  
C457     C      0.326850000000     0.833700000000     0.867260000000    -0.0312542  
C458     C      0.409960000000     0.948730000000     0.912130000000    -0.0298419  
C459     C      0.419280000000     0.933260000000     0.969230000000    -0.00749168 
C460     C      0.419410000000     0.970390000000     0.932650000000    -0.0071039  
C461     C      0.353760000000     0.908560000000     0.907030000000    -0.0540301  
C462     C      0.382540000000     0.874250000000     0.871930000000    -0.0522181  
C463     C      0.381340000000     0.909290000000     0.907590000000     0.0624182  
C464     C      0.409860000000     0.913090000000     0.947230000000    -0.0295264  
C465     C      0.354970000000     0.873520000000     0.871370000000     0.0621037  
C466     C      0.325850000000     0.869340000000     0.832210000000    -0.0783002  
C467     C      0.340590000000     0.890830000000     0.889100000000    -0.0558155  
C468     C      0.316280000000     0.849070000000     0.810210000000     0.168878   
C469     C      0.317360000000     0.811910000000     0.846920000000     0.000177904
C470     C      0.395720000000     0.891960000000     0.889880000000    -0.0562369  
C471     C      0.319860000000     0.693040000000     0.872190000000    -0.0314549  
C472     C      0.418280000000     0.587660000000     0.907200000000    -0.0291402  
C473     C      0.445450000000     0.614480000000     0.952700000000    -0.00863872 
C474     C      0.445600000000     0.577630000000     0.916000000000    -0.0085587  
C475     C      0.393960000000     0.648860000000     0.880890000000    -0.053373   
C476     C      0.344030000000     0.631690000000     0.898200000000    -0.0525919  
C477     C      0.391830000000     0.628650000000     0.901310000000     0.0618773  
C478     C      0.418130000000     0.623120000000     0.942520000000    -0.0291064  
C479     C      0.346160000000     0.651930000000     0.877820000000     0.061783   
C480     C      0.319720000000     0.657800000000     0.836730000000    -0.0782571  
C481     C      0.371370000000     0.660460000000     0.869190000000    -0.0557906  
C482     C      0.292240000000     0.666420000000     0.826650000000     0.168849   
C483     C      0.292530000000     0.703210000000     0.863640000000     0.000351089
C484     C      0.366610000000     0.620090000000     0.909910000000    -0.05619    
C485     C      0.073310000000     0.910770000000     0.946240000000    -0.031408   
C486     C      0.161950000000     0.868740000000     0.834080000000    -0.0292997  
C487     C      0.188800000000     0.822150000000     0.859530000000    -0.00900931 
C488     C      0.188320000000     0.859070000000     0.822250000000    -0.00900558 
C489     C      0.143760000000     0.896660000000     0.896950000000    -0.0537572  
C490     C      0.091810000000     0.882870000000     0.883580000000    -0.0526631  
C491     C      0.138970000000     0.876480000000     0.877000000000     0.0614468  
C492     C      0.162390000000     0.833690000000     0.869430000000    -0.0292504  
C493     C      0.096600000000     0.903090000000     0.903500000000     0.0617508  
C494     C      0.073510000000     0.946070000000     0.911150000000    -0.0779815  
C495     C      0.122820000000     0.909900000000     0.910160000000    -0.0560647  
C496     C      0.046990000000     0.957870000000     0.920770000000     0.168158   
C497     C      0.046970000000     0.920720000000     0.957890000000    -0.000798303
C498     C      0.112760000000     0.869620000000     0.870400000000    -0.0560691  
C499     C      0.417860000000     0.907840000000     0.588080000000    -0.0312809  
C500     C      0.319810000000     0.872700000000     0.693880000000    -0.0294365  
C501     C      0.292310000000     0.827540000000     0.666830000000    -0.00811297 
C502     C      0.292450000000     0.864060000000     0.703930000000    -0.0080394  
C503     C      0.371350000000     0.869990000000     0.661190000000    -0.0562799  
C504     C      0.366540000000     0.910850000000     0.620970000000    -0.0556578  
C505     C      0.346120000000     0.878730000000     0.652800000000     0.0621096  
C506     C      0.319680000000     0.837590000000     0.658250000000    -0.0293449  
C507     C      0.391770000000     0.902090000000     0.629320000000     0.061589   
C508     C      0.418310000000     0.943110000000     0.623520000000    -0.0778956  
C509     C      0.393920000000     0.881630000000     0.649490000000    -0.0521707  
C510     C      0.445730000000     0.953200000000     0.614720000000     0.168409   
C511     C      0.445130000000     0.916450000000     0.577750000000    -0.00020943 
C512     C      0.343970000000     0.899210000000     0.632660000000    -0.0538307  
C513     C      0.530350000000     0.468670000000     0.061370000000     0.388598   
C514     C      0.529890000000     0.062320000000     0.469090000000     0.397498   
C515     C      0.524660000000     0.465190000000     0.465250000000     0.398672   
C516     C      0.524730000000     0.065580000000     0.065190000000     0.388259   
C517     C      0.952780000000     0.060400000000     0.061220000000     0.396598   
C518     C      0.953090000000     0.469860000000     0.469380000000     0.398474   
C519     C      0.965000000000     0.462090000000     0.068740000000     0.400611   
C520     C      0.964940000000     0.068680000000     0.461920000000     0.395276   
C521     C      0.772350000000     0.318410000000     0.212390000000     0.39674    
C522     C      0.772280000000     0.212160000000     0.318200000000     0.402552   
C523     C      0.783220000000     0.311710000000     0.310710000000     0.406344   
C524     C      0.783130000000     0.218640000000     0.219930000000     0.408407   
C525     C      0.711600000000     0.215500000000     0.215250000000     0.398428   
C526     C      0.711380000000     0.314980000000     0.315200000000     0.38864    
C527     C      0.707020000000     0.311700000000     0.217910000000     0.398097   
C528     C      0.706620000000     0.219080000000     0.312400000000     0.3887     
C529     C      0.662890000000     0.196750000000     0.160770000000    -0.0313665  
C530     C      0.573790000000     0.084790000000     0.119110000000    -0.0292132  
C531     C      0.547140000000     0.110030000000     0.072310000000    -0.0092062  
C532     C      0.547420000000     0.072990000000     0.109430000000    -0.00899561 
C533     C      0.623120000000     0.120910000000     0.119850000000    -0.056287   
C534     C      0.613140000000     0.160990000000     0.159830000000    -0.0560832  
C535     C      0.596920000000     0.127680000000     0.126600000000     0.0614484  
C536     C      0.573540000000     0.119940000000     0.083840000000    -0.0291012  
C537     C      0.639340000000     0.154140000000     0.153160000000     0.0615998  
C538     C      0.662300000000     0.161790000000     0.196190000000    -0.078065   
C539     C      0.644090000000     0.134060000000     0.133080000000    -0.0527289  
C540     C      0.688840000000     0.171230000000     0.208050000000     0.168193   
C541     C      0.689280000000     0.208250000000     0.170790000000    -0.000929366
C542     C      0.592170000000     0.147810000000     0.146620000000    -0.0537525  
C543     C      0.579740000000     0.081740000000     0.415150000000    -0.0318865  
C544     C      0.656930000000     0.200380000000     0.366780000000    -0.0288808  
C545     C      0.681590000000     0.176300000000     0.318110000000    -0.00932292 
C546     C      0.682010000000     0.213680000000     0.355510000000    -0.00836856 
C547     C      0.610310000000     0.160700000000     0.371650000000    -0.0563861  
C548     C      0.626090000000     0.121710000000     0.410690000000    -0.0558744  
C549     C      0.637330000000     0.156030000000     0.376300000000     0.0622377  
C550     C      0.656530000000     0.165340000000     0.331670000000    -0.0283496  
C551     C      0.599070000000     0.126300000000     0.405950000000     0.0619983  
C552     C      0.579430000000     0.116680000000     0.450350000000    -0.0783571  
C553     C      0.591400000000     0.145900000000     0.386400000000    -0.0525262  
C554     C      0.554010000000     0.105740000000     0.463460000000     0.168867   
C555     C      0.554690000000     0.068190000000     0.426180000000    -0.00054001 
C556     C      0.645000000000     0.136490000000     0.395910000000    -0.0537415  
C557     C      0.657320000000     0.365700000000     0.198330000000    -0.0319179  
C558     C      0.580500000000     0.414630000000     0.079810000000    -0.0287585  
C559     C      0.555500000000     0.463040000000     0.104070000000    -0.00916212 
C560     C      0.555400000000     0.425810000000     0.066490000000    -0.00843914 
C561     C      0.626960000000     0.409710000000     0.119670000000    -0.0563792  
C562     C      0.611160000000     0.370200000000     0.158180000000    -0.0558852  
C563     C      0.599940000000     0.404900000000     0.124160000000     0.0622246  
C564     C      0.580580000000     0.449530000000     0.115050000000    -0.0283873  
C565     C      0.638180000000     0.375100000000     0.153760000000     0.0620357  
C566     C      0.657960000000     0.330700000000     0.163190000000    -0.0784222  
C567     C      0.645860000000     0.394890000000     0.134410000000    -0.0526104  
C568     C      0.683340000000     0.317600000000     0.174260000000     0.168945   
C569     C      0.682330000000     0.354680000000     0.211960000000    -0.00031142 
C570     C      0.592260000000     0.385050000000     0.143450000000    -0.05354    
C571     C      0.826610000000     0.196330000000     0.163360000000    -0.0313607  
C572     C      0.909570000000     0.081200000000     0.118460000000    -0.0294165  
C573     C      0.918630000000     0.096660000000     0.061310000000    -0.00808109 
C574     C      0.919050000000     0.059570000000     0.097900000000    -0.00824866 
C575     C      0.853310000000     0.121320000000     0.123730000000    -0.0535182  
C576     C      0.882180000000     0.155670000000     0.158690000000    -0.052841   
C577     C      0.880880000000     0.120580000000     0.123090000000     0.061916   
C578     C      0.909210000000     0.116820000000     0.083310000000    -0.0293295  
C579     C      0.854610000000     0.156420000000     0.159320000000     0.0624723  
C580     C      0.825510000000     0.160770000000     0.198480000000    -0.078426   
C581     C      0.840180000000     0.139090000000     0.141650000000    -0.0562145  
C582     C      0.816030000000     0.181120000000     0.220460000000     0.169408   
C583     C      0.817220000000     0.218210000000     0.183660000000     0.000747064
C584     C      0.895310000000     0.137930000000     0.140740000000    -0.0560207  
C585     C      0.826850000000     0.333700000000     0.367260000000    -0.0312606  
C586     C      0.909960000000     0.448730000000     0.412130000000    -0.0298136  
C587     C      0.919280000000     0.433260000000     0.469230000000    -0.00740889 
C588     C      0.919410000000     0.470390000000     0.432650000000    -0.00719021 
C589     C      0.853760000000     0.408560000000     0.407030000000    -0.0540423  
C590     C      0.882540000000     0.374250000000     0.371930000000    -0.0522393  
C591     C      0.881340000000     0.409290000000     0.407590000000     0.0623747  
C592     C      0.909860000000     0.413090000000     0.447240000000    -0.0296006  
C593     C      0.854960000000     0.373520000000     0.371370000000     0.0620967  
C594     C      0.825850000000     0.369340000000     0.332220000000    -0.0781789  
C595     C      0.840590000000     0.390830000000     0.389100000000    -0.0558682  
C596     C      0.816280000000     0.349070000000     0.310210000000     0.168767   
C597     C      0.817360000000     0.311910000000     0.346920000000     0.000230139
C598     C      0.895720000000     0.391960000000     0.389880000000    -0.0562672  
C599     C      0.819860000000     0.193040000000     0.372190000000    -0.0314831  
C600     C      0.918280000000     0.087660000000     0.407200000000    -0.0291344  
C601     C      0.945450000000     0.114480000000     0.452700000000    -0.00854635 
C602     C      0.945600000000     0.077630000000     0.416000000000    -0.00859476 
C603     C      0.893960000000     0.148860000000     0.380890000000    -0.0533872  
C604     C      0.844030000000     0.131690000000     0.398200000000    -0.0526477  
C605     C      0.891830000000     0.128650000000     0.401310000000     0.0618128  
C606     C      0.918130000000     0.123120000000     0.442520000000    -0.0291845  
C607     C      0.846160000000     0.151930000000     0.377820000000     0.0617796  
C608     C      0.819720000000     0.157800000000     0.336730000000    -0.0782011  
C609     C      0.871370000000     0.160460000000     0.369190000000    -0.0558331  
C610     C      0.792240000000     0.166420000000     0.326650000000     0.168723   
C611     C      0.792530000000     0.203210000000     0.363640000000     0.000352627
C612     C      0.866610000000     0.120090000000     0.409900000000    -0.0561544  
C613     C      0.573310000000     0.410770000000     0.446240000000    -0.031419   
C614     C      0.661950000000     0.368740000000     0.334080000000    -0.0292876  
C615     C      0.688800000000     0.322150000000     0.359530000000    -0.00904256 
C616     C      0.688320000000     0.359070000000     0.322250000000    -0.00901728 
C617     C      0.643760000000     0.396660000000     0.396960000000    -0.0537641  
C618     C      0.591810000000     0.382880000000     0.383580000000    -0.0527044  
C619     C      0.638970000000     0.376480000000     0.377000000000     0.0614088  
C620     C      0.662390000000     0.333690000000     0.369430000000    -0.029248   
C621     C      0.596600000000     0.403090000000     0.403500000000     0.0617292  
C622     C      0.573510000000     0.446070000000     0.411150000000    -0.0779788  
C623     C      0.622820000000     0.409900000000     0.410160000000    -0.0560937  
C624     C      0.546990000000     0.457870000000     0.420760000000     0.168165   
C625     C      0.546970000000     0.420720000000     0.457890000000    -0.000781083
C626     C      0.612760000000     0.369620000000     0.370400000000    -0.0561016  
C627     C      0.917860000000     0.407840000000     0.088080000000    -0.0312909  
C628     C      0.819810000000     0.372700000000     0.193880000000    -0.029477   
C629     C      0.792310000000     0.327540000000     0.166830000000    -0.00812725 
C630     C      0.792450000000     0.364060000000     0.203920000000    -0.00795613 
C631     C      0.871350000000     0.369990000000     0.161190000000    -0.0562591  
C632     C      0.866540000000     0.410850000000     0.120970000000    -0.0556846  
C633     C      0.846120000000     0.378730000000     0.152800000000     0.0620528  
C634     C      0.819680000000     0.337590000000     0.158250000000    -0.029284   
C635     C      0.891770000000     0.402090000000     0.129320000000     0.0615531  
C636     C      0.918310000000     0.443110000000     0.123520000000    -0.0778582  
C637     C      0.893920000000     0.381630000000     0.149490000000    -0.052201   
C638     C      0.945730000000     0.453200000000     0.114720000000     0.168271   
C639     C      0.945130000000     0.416450000000     0.077750000000    -0.000196895
C640     C      0.843970000000     0.399210000000     0.132660000000    -0.0538513  
C641     C      0.530350000000     0.468670000000     0.561370000000     0.388624   
C642     C      0.529890000000     0.062320000000     0.969090000000     0.397633   
C643     C      0.524660000000     0.465190000000     0.965250000000     0.398656   
C644     C      0.524730000000     0.065580000000     0.565200000000     0.388363   
C645     C      0.952780000000     0.060400000000     0.561220000000     0.396623   
C646     C      0.953090000000     0.469860000000     0.969380000000     0.398396   
C647     C      0.965000000000     0.462090000000     0.568740000000     0.400634   
C648     C      0.964940000000     0.068680000000     0.961920000000     0.394948   
C649     C      0.772350000000     0.318410000000     0.712390000000     0.396738   
C650     C      0.772280000000     0.212160000000     0.818200000000     0.402779   
C651     C      0.783220000000     0.311710000000     0.810710000000     0.406411   
C652     C      0.783130000000     0.218640000000     0.719930000000     0.408478   
C653     C      0.711600000000     0.215500000000     0.715250000000     0.398429   
C654     C      0.711380000000     0.314980000000     0.815200000000     0.388411   
C655     C      0.707020000000     0.311700000000     0.717910000000     0.398092   
C656     C      0.706620000000     0.219080000000     0.812410000000     0.388659   
C657     C      0.662890000000     0.196750000000     0.660770000000    -0.0313703  
C658     C      0.573790000000     0.084790000000     0.619110000000    -0.0291646  
C659     C      0.547140000000     0.110030000000     0.572310000000    -0.00919106 
C660     C      0.547420000000     0.072990000000     0.609440000000    -0.00910668 
C661     C      0.623120000000     0.120910000000     0.619850000000    -0.0562732  
C662     C      0.613140000000     0.160990000000     0.659830000000    -0.0560646  
C663     C      0.596920000000     0.127680000000     0.626600000000     0.0614582  
C664     C      0.573540000000     0.119940000000     0.583840000000    -0.0291027  
C665     C      0.639340000000     0.154140000000     0.653150000000     0.0615965  
C666     C      0.662300000000     0.161790000000     0.696190000000    -0.078078   
C667     C      0.644090000000     0.134060000000     0.633080000000    -0.0527291  
C668     C      0.688840000000     0.171230000000     0.708050000000     0.168229   
C669     C      0.689280000000     0.208250000000     0.670790000000    -0.000928732
C670     C      0.592170000000     0.147810000000     0.646620000000    -0.0537536  
C671     C      0.579740000000     0.081740000000     0.915150000000    -0.0318977  
C672     C      0.656930000000     0.200380000000     0.866780000000    -0.0288802  
C673     C      0.681590000000     0.176300000000     0.818110000000    -0.00930877 
C674     C      0.682010000000     0.213680000000     0.855510000000    -0.00837177 
C675     C      0.610310000000     0.160700000000     0.871650000000    -0.0563799  
C676     C      0.626090000000     0.121710000000     0.910690000000    -0.055864   
C677     C      0.637330000000     0.156030000000     0.876300000000     0.0622436  
C678     C      0.656530000000     0.165340000000     0.831670000000    -0.0283542  
C679     C      0.599070000000     0.126300000000     0.905950000000     0.0620079  
C680     C      0.579430000000     0.116680000000     0.950350000000    -0.0784342  
C681     C      0.591400000000     0.145900000000     0.886400000000    -0.0525215  
C682     C      0.554010000000     0.105740000000     0.963450000000     0.168957   
C683     C      0.554690000000     0.068190000000     0.926180000000    -0.000527562
C684     C      0.645000000000     0.136490000000     0.895910000000    -0.0537258  
C685     C      0.657320000000     0.365700000000     0.698330000000    -0.0319012  
C686     C      0.580500000000     0.414630000000     0.579810000000    -0.0287576  
C687     C      0.555500000000     0.463040000000     0.604070000000    -0.00915524 
C688     C      0.555400000000     0.425810000000     0.566490000000    -0.00844372 
C689     C      0.626960000000     0.409710000000     0.619670000000    -0.0563694  
C690     C      0.611160000000     0.370200000000     0.658170000000    -0.0558221  
C691     C      0.599940000000     0.404900000000     0.624160000000     0.0622196  
C692     C      0.580580000000     0.449530000000     0.615050000000    -0.0283915  
C693     C      0.638180000000     0.375100000000     0.653760000000     0.0620159  
C694     C      0.657960000000     0.330700000000     0.663190000000    -0.0784238  
C695     C      0.645860000000     0.394890000000     0.634410000000    -0.0525881  
C696     C      0.683340000000     0.317600000000     0.674260000000     0.168946   
C697     C      0.682330000000     0.354680000000     0.711970000000    -0.000389971
C698     C      0.592260000000     0.385050000000     0.643460000000    -0.0535358  
C699     C      0.826610000000     0.196330000000     0.663360000000    -0.0314291  
C700     C      0.909570000000     0.081200000000     0.618460000000    -0.0294132  
C701     C      0.918630000000     0.096660000000     0.561310000000    -0.00809413 
C702     C      0.919050000000     0.059570000000     0.597900000000    -0.00825195 
C703     C      0.853310000000     0.121320000000     0.623730000000    -0.0535197  
C704     C      0.882180000000     0.155670000000     0.658690000000    -0.0528111  
C705     C      0.880880000000     0.120580000000     0.623090000000     0.0619365  
C706     C      0.909210000000     0.116820000000     0.583310000000    -0.0293206  
C707     C      0.854610000000     0.156420000000     0.659320000000     0.0624282  
C708     C      0.825510000000     0.160770000000     0.698480000000    -0.078469   
C709     C      0.840180000000     0.139090000000     0.641650000000    -0.0561809  
C710     C      0.816030000000     0.181120000000     0.720450000000     0.169438   
C711     C      0.817220000000     0.218210000000     0.683660000000     0.00072039 
C712     C      0.895310000000     0.137930000000     0.640740000000    -0.0560299  
C713     C      0.826850000000     0.333700000000     0.867260000000    -0.0312525  
C714     C      0.909960000000     0.448730000000     0.912130000000    -0.0298375  
C715     C      0.919280000000     0.433260000000     0.969230000000    -0.0075124  
C716     C      0.919410000000     0.470390000000     0.932650000000    -0.00711006 
C717     C      0.853760000000     0.408560000000     0.907030000000    -0.0540329  
C718     C      0.882540000000     0.374250000000     0.871930000000    -0.0522293  
C719     C      0.881340000000     0.409290000000     0.907590000000     0.0623908  
C720     C      0.909860000000     0.413090000000     0.947230000000    -0.029515   
C721     C      0.854960000000     0.373520000000     0.871370000000     0.0620974  
C722     C      0.825850000000     0.369340000000     0.832210000000    -0.0782935  
C723     C      0.840590000000     0.390830000000     0.889100000000    -0.0558531  
C724     C      0.816280000000     0.349070000000     0.810210000000     0.168877   
C725     C      0.817360000000     0.311910000000     0.846920000000     0.000181627
C726     C      0.895720000000     0.391960000000     0.889880000000    -0.0562661  
C727     C      0.819860000000     0.193040000000     0.872190000000    -0.0314897  
C728     C      0.918280000000     0.087660000000     0.907200000000    -0.0291553  
C729     C      0.945450000000     0.114480000000     0.952700000000    -0.00861172 
C730     C      0.945600000000     0.077630000000     0.916000000000    -0.00854134 
C731     C      0.893960000000     0.148860000000     0.880890000000    -0.0533924  
C732     C      0.844030000000     0.131690000000     0.898200000000    -0.0526142  
C733     C      0.891830000000     0.128650000000     0.901310000000     0.0618404  
C734     C      0.918130000000     0.123120000000     0.942520000000    -0.0291656  
C735     C      0.846160000000     0.151930000000     0.877820000000     0.0617775  
C736     C      0.819720000000     0.157800000000     0.836730000000    -0.0782467  
C737     C      0.871370000000     0.160460000000     0.869190000000    -0.0558197  
C738     C      0.792240000000     0.166420000000     0.826650000000     0.168842   
C739     C      0.792530000000     0.203210000000     0.863640000000     0.000359874
C740     C      0.866610000000     0.120090000000     0.909910000000    -0.056194   
C741     C      0.573310000000     0.410770000000     0.946240000000    -0.0314209  
C742     C      0.661950000000     0.368740000000     0.834080000000    -0.0292841  
C743     C      0.688800000000     0.322150000000     0.859530000000    -0.00902136 
C744     C      0.688320000000     0.359070000000     0.822250000000    -0.00903188 
C745     C      0.643760000000     0.396660000000     0.896950000000    -0.0537782  
C746     C      0.591810000000     0.382880000000     0.883580000000    -0.0526927  
C747     C      0.638970000000     0.376480000000     0.877000000000     0.0614425  
C748     C      0.662390000000     0.333690000000     0.869430000000    -0.0292431  
C749     C      0.596600000000     0.403090000000     0.903500000000     0.0617371  
C750     C      0.573510000000     0.446070000000     0.911150000000    -0.0779566  
C751     C      0.622820000000     0.409900000000     0.910160000000    -0.0560777  
C752     C      0.546990000000     0.457870000000     0.920770000000     0.168153   
C753     C      0.546970000000     0.420720000000     0.957890000000    -0.000781963
C754     C      0.612760000000     0.369620000000     0.870400000000    -0.0561068  
C755     C      0.917860000000     0.407840000000     0.588080000000    -0.031287   
C756     C      0.819810000000     0.372700000000     0.693880000000    -0.0294477  
C757     C      0.792310000000     0.327540000000     0.666830000000    -0.0081313  
C758     C      0.792450000000     0.364060000000     0.703930000000    -0.00803001 
C759     C      0.871350000000     0.369990000000     0.661190000000    -0.0562934  
C760     C      0.866540000000     0.410850000000     0.620970000000    -0.0556704  
C761     C      0.846120000000     0.378730000000     0.652800000000     0.0620746  
C762     C      0.819680000000     0.337590000000     0.658250000000    -0.0292822  
C763     C      0.891770000000     0.402090000000     0.629320000000     0.06156    
C764     C      0.918310000000     0.443110000000     0.623520000000    -0.0778608  
C765     C      0.893920000000     0.381630000000     0.649490000000    -0.0521978  
C766     C      0.945730000000     0.453200000000     0.614720000000     0.168274   
C767     C      0.945130000000     0.416450000000     0.577750000000    -0.000206804
C768     C      0.843970000000     0.399210000000     0.632660000000    -0.0538432  
C769     C      0.530350000000     0.968670000000     0.061370000000     0.388577   
C770     C      0.529890000000     0.562320000000     0.469090000000     0.397521   
C771     C      0.524660000000     0.965190000000     0.465250000000     0.398649   
C772     C      0.524730000000     0.565580000000     0.065190000000     0.388278   
C773     C      0.952780000000     0.560400000000     0.061220000000     0.39662    
C774     C      0.953090000000     0.969860000000     0.469380000000     0.398453   
C775     C      0.965000000000     0.962090000000     0.068740000000     0.400587   
C776     C      0.964940000000     0.568680000000     0.461920000000     0.395297   
C777     C      0.772350000000     0.818410000000     0.212390000000     0.396739   
C778     C      0.772280000000     0.712160000000     0.318200000000     0.402684   
C779     C      0.783220000000     0.811710000000     0.310710000000     0.406344   
C780     C      0.783130000000     0.718640000000     0.219930000000     0.408407   
C781     C      0.711600000000     0.715500000000     0.215250000000     0.39843    
C782     C      0.711380000000     0.814980000000     0.315200000000     0.388638   
C783     C      0.707020000000     0.811700000000     0.217910000000     0.398095   
C784     C      0.706620000000     0.719080000000     0.312400000000     0.388701   
C785     C      0.662890000000     0.696750000000     0.160770000000    -0.0313841  
C786     C      0.573790000000     0.584790000000     0.119110000000    -0.0292113  
C787     C      0.547140000000     0.610030000000     0.072310000000    -0.00921832 
C788     C      0.547420000000     0.572990000000     0.109430000000    -0.0089997  
C789     C      0.623120000000     0.620910000000     0.119850000000    -0.0562659  
C790     C      0.613140000000     0.660990000000     0.159830000000    -0.0560723  
C791     C      0.596920000000     0.627690000000     0.126600000000     0.0614502  
C792     C      0.573540000000     0.619940000000     0.083840000000    -0.0291005  
C793     C      0.639340000000     0.654140000000     0.153160000000     0.061603   
C794     C      0.662300000000     0.661790000000     0.196190000000    -0.0780685  
C795     C      0.644090000000     0.634060000000     0.133080000000    -0.0527199  
C796     C      0.688840000000     0.671230000000     0.208050000000     0.168196   
C797     C      0.689280000000     0.708250000000     0.170790000000    -0.000924223
C798     C      0.592170000000     0.647810000000     0.146620000000    -0.0537639  
C799     C      0.579740000000     0.581740000000     0.415150000000    -0.0318847  
C800     C      0.656930000000     0.700380000000     0.366780000000    -0.0288268  
C801     C      0.681590000000     0.676300000000     0.318110000000    -0.00931802 
C802     C      0.682010000000     0.713680000000     0.355510000000    -0.00838686 
C803     C      0.610310000000     0.660700000000     0.371650000000    -0.0563662  
C804     C      0.626090000000     0.621710000000     0.410690000000    -0.0558831  
C805     C      0.637330000000     0.656030000000     0.376300000000     0.062208   
C806     C      0.656530000000     0.665340000000     0.331670000000    -0.0283672  
C807     C      0.599070000000     0.626300000000     0.405950000000     0.062036   
C808     C      0.579430000000     0.616680000000     0.450350000000    -0.0783601  
C809     C      0.591400000000     0.645890000000     0.386400000000    -0.0525463  
C810     C      0.554010000000     0.605740000000     0.463460000000     0.168871   
C811     C      0.554690000000     0.568190000000     0.426180000000    -0.000544816
C812     C      0.645000000000     0.636490000000     0.395910000000    -0.053709   
C813     C      0.657320000000     0.865700000000     0.198330000000    -0.0319194  
C814     C      0.580500000000     0.914630000000     0.079810000000    -0.0287629  
C815     C      0.555500000000     0.963040000000     0.104070000000    -0.00917011 
C816     C      0.555400000000     0.925810000000     0.066490000000    -0.0084319  
C817     C      0.626960000000     0.909710000000     0.119670000000    -0.0563696  
C818     C      0.611160000000     0.870200000000     0.158180000000    -0.0558793  
C819     C      0.599940000000     0.904900000000     0.124160000000     0.0622348  
C820     C      0.580580000000     0.949530000000     0.115050000000    -0.0283855  
C821     C      0.638180000000     0.875100000000     0.153760000000     0.0620416  
C822     C      0.657960000000     0.830700000000     0.163190000000    -0.0784227  
C823     C      0.645860000000     0.894890000000     0.134410000000    -0.0525946  
C824     C      0.683340000000     0.817600000000     0.174260000000     0.168944   
C825     C      0.682330000000     0.854680000000     0.211960000000    -0.000312626
C826     C      0.592260000000     0.885050000000     0.143450000000    -0.0535351  
C827     C      0.826610000000     0.696330000000     0.163360000000    -0.031363   
C828     C      0.909570000000     0.581200000000     0.118460000000    -0.0294163  
C829     C      0.918630000000     0.596660000000     0.061310000000    -0.00807593 
C830     C      0.919050000000     0.559570000000     0.097900000000    -0.00823102 
C831     C      0.853310000000     0.621320000000     0.123730000000    -0.0535003  
C832     C      0.882180000000     0.655670000000     0.158690000000    -0.052879   
C833     C      0.880880000000     0.620580000000     0.123090000000     0.0619209  
C834     C      0.909210000000     0.616820000000     0.083310000000    -0.029328   
C835     C      0.854610000000     0.656420000000     0.159320000000     0.0624947  
C836     C      0.825510000000     0.660770000000     0.198480000000    -0.0784321  
C837     C      0.840180000000     0.639090000000     0.141650000000    -0.0562117  
C838     C      0.816030000000     0.681120000000     0.220460000000     0.169412   
C839     C      0.817220000000     0.718210000000     0.183660000000     0.000747283
C840     C      0.895310000000     0.637930000000     0.140740000000    -0.0559979  
C841     C      0.826850000000     0.833700000000     0.367260000000    -0.0312637  
C842     C      0.909960000000     0.948730000000     0.412130000000    -0.0298029  
C843     C      0.919280000000     0.933260000000     0.469230000000    -0.00741191 
C844     C      0.919410000000     0.970390000000     0.432650000000    -0.00720815 
C845     C      0.853760000000     0.908560000000     0.407030000000    -0.0540312  
C846     C      0.882540000000     0.874250000000     0.371930000000    -0.0522305  
C847     C      0.881340000000     0.909290000000     0.407590000000     0.0623899  
C848     C      0.909860000000     0.913090000000     0.447240000000    -0.0295972  
C849     C      0.854960000000     0.873520000000     0.371370000000     0.0621002  
C850     C      0.825850000000     0.869340000000     0.332220000000    -0.0781858  
C851     C      0.840590000000     0.890830000000     0.389100000000    -0.0558539  
C852     C      0.816280000000     0.849070000000     0.310210000000     0.168771   
C853     C      0.817360000000     0.811910000000     0.346920000000     0.000230661
C854     C      0.895720000000     0.891960000000     0.389880000000    -0.0562647  
C855     C      0.819860000000     0.693040000000     0.372190000000    -0.0314851  
C856     C      0.918280000000     0.587660000000     0.407200000000    -0.0291355  
C857     C      0.945450000000     0.614480000000     0.452700000000    -0.00855682 
C858     C      0.945600000000     0.577630000000     0.416000000000    -0.00859621 
C859     C      0.893960000000     0.648860000000     0.380890000000    -0.0533832  
C860     C      0.844030000000     0.631690000000     0.398200000000    -0.0526324  
C861     C      0.891830000000     0.628650000000     0.401310000000     0.0618235  
C862     C      0.918130000000     0.623120000000     0.442520000000    -0.0291419  
C863     C      0.846160000000     0.651930000000     0.377820000000     0.0617856  
C864     C      0.819720000000     0.657800000000     0.336730000000    -0.0782054  
C865     C      0.871370000000     0.660460000000     0.369190000000    -0.0558276  
C866     C      0.792240000000     0.666420000000     0.326650000000     0.168729   
C867     C      0.792530000000     0.703210000000     0.363640000000     0.00035697 
C868     C      0.866610000000     0.620090000000     0.409900000000    -0.0561449  
C869     C      0.573310000000     0.910770000000     0.446240000000    -0.0314242  
C870     C      0.661950000000     0.868740000000     0.334080000000    -0.029282   
C871     C      0.688800000000     0.822150000000     0.359530000000    -0.00904421 
C872     C      0.688320000000     0.859070000000     0.322250000000    -0.00903709 
C873     C      0.643760000000     0.896660000000     0.396960000000    -0.0537511  
C874     C      0.591810000000     0.882870000000     0.383580000000    -0.0526915  
C875     C      0.638970000000     0.876480000000     0.377000000000     0.0614139  
C876     C      0.662390000000     0.833690000000     0.369430000000    -0.029248   
C877     C      0.596600000000     0.903090000000     0.403500000000     0.0617163  
C878     C      0.573510000000     0.946070000000     0.411150000000    -0.0780105  
C879     C      0.622820000000     0.909900000000     0.410160000000    -0.0560751  
C880     C      0.546990000000     0.957870000000     0.420760000000     0.168179   
C881     C      0.546970000000     0.920720000000     0.457890000000    -0.000773265
C882     C      0.612760000000     0.869620000000     0.370400000000    -0.05609    
C883     C      0.917860000000     0.907840000000     0.088080000000    -0.0312961  
C884     C      0.819810000000     0.872700000000     0.193880000000    -0.0294621  
C885     C      0.792310000000     0.827540000000     0.166830000000    -0.00811121 
C886     C      0.792450000000     0.864060000000     0.203920000000    -0.00796355 
C887     C      0.871350000000     0.869990000000     0.161190000000    -0.0562684  
C888     C      0.866540000000     0.910850000000     0.120970000000    -0.0556674  
C889     C      0.846120000000     0.878730000000     0.152800000000     0.0620885  
C890     C      0.819680000000     0.837590000000     0.158250000000    -0.0293389  
C891     C      0.891770000000     0.902090000000     0.129320000000     0.0615585  
C892     C      0.918310000000     0.943110000000     0.123520000000    -0.0778652  
C893     C      0.893920000000     0.881630000000     0.149490000000    -0.0521888  
C894     C      0.945730000000     0.953200000000     0.114720000000     0.168277   
C895     C      0.945130000000     0.916450000000     0.077750000000    -0.000189806
C896     C      0.843970000000     0.899210000000     0.132660000000    -0.0538451  
C897     C      0.530350000000     0.968670000000     0.561370000000     0.388603   
C898     C      0.529890000000     0.562320000000     0.969090000000     0.397656   
C899     C      0.524660000000     0.965190000000     0.965250000000     0.398632   
C900     C      0.524730000000     0.565580000000     0.565200000000     0.388382   
C901     C      0.952780000000     0.560400000000     0.561220000000     0.396645   
C902     C      0.953090000000     0.969860000000     0.969380000000     0.398374   
C903     C      0.965000000000     0.962090000000     0.568740000000     0.40061    
C904     C      0.964940000000     0.568680000000     0.961920000000     0.394968   
C905     C      0.772350000000     0.818410000000     0.712390000000     0.396736   
C906     C      0.772280000000     0.712160000000     0.818200000000     0.402911   
C907     C      0.783220000000     0.811710000000     0.810710000000     0.406411   
C908     C      0.783130000000     0.718640000000     0.719930000000     0.408479   
C909     C      0.711600000000     0.715500000000     0.715250000000     0.39843    
C910     C      0.711380000000     0.814980000000     0.815200000000     0.388408   
C911     C      0.707020000000     0.811700000000     0.717910000000     0.39809    
C912     C      0.706620000000     0.719080000000     0.812410000000     0.38866    
C913     C      0.662890000000     0.696750000000     0.660770000000    -0.0313879  
C914     C      0.573790000000     0.584790000000     0.619110000000    -0.0291628  
C915     C      0.547140000000     0.610030000000     0.572310000000    -0.00920318 
C916     C      0.547420000000     0.572990000000     0.609440000000    -0.00911077 
C917     C      0.623120000000     0.620910000000     0.619850000000    -0.056252   
C918     C      0.613140000000     0.660990000000     0.659830000000    -0.0560537  
C919     C      0.596920000000     0.627690000000     0.626600000000     0.0614601  
C920     C      0.573540000000     0.619940000000     0.583840000000    -0.029102   
C921     C      0.639340000000     0.654140000000     0.653150000000     0.0615997  
C922     C      0.662300000000     0.661790000000     0.696190000000    -0.0780815  
C923     C      0.644090000000     0.634060000000     0.633080000000    -0.05272    
C924     C      0.688840000000     0.671230000000     0.708050000000     0.168233   
C925     C      0.689280000000     0.708250000000     0.670790000000    -0.000923591
C926     C      0.592170000000     0.647810000000     0.646620000000    -0.053765   
C927     C      0.579740000000     0.581740000000     0.915150000000    -0.0318959  
C928     C      0.656930000000     0.700380000000     0.866780000000    -0.0288262  
C929     C      0.681590000000     0.676300000000     0.818110000000    -0.00930388 
C930     C      0.682010000000     0.713680000000     0.855510000000    -0.00839007 
C931     C      0.610310000000     0.660700000000     0.871650000000    -0.05636    
C932     C      0.626090000000     0.621710000000     0.910690000000    -0.0558727  
C933     C      0.637330000000     0.656030000000     0.876300000000     0.0622139  
C934     C      0.656530000000     0.665340000000     0.831670000000    -0.0283718  
C935     C      0.599070000000     0.626300000000     0.905950000000     0.0620457  
C936     C      0.579430000000     0.616680000000     0.950350000000    -0.0784372  
C937     C      0.591400000000     0.645890000000     0.886400000000    -0.0525416  
C938     C      0.554010000000     0.605740000000     0.963450000000     0.168961   
C939     C      0.554690000000     0.568190000000     0.926180000000    -0.00053236 
C940     C      0.645000000000     0.636490000000     0.895910000000    -0.0536933  
C941     C      0.657320000000     0.865700000000     0.698330000000    -0.0319027  
C942     C      0.580500000000     0.914630000000     0.579810000000    -0.0287621  
C943     C      0.555500000000     0.963040000000     0.604070000000    -0.00916324 
C944     C      0.555400000000     0.925810000000     0.566490000000    -0.00843648 
C945     C      0.626960000000     0.909710000000     0.619670000000    -0.0563598  
C946     C      0.611160000000     0.870200000000     0.658170000000    -0.0558162  
C947     C      0.599940000000     0.904900000000     0.624160000000     0.0622298  
C948     C      0.580580000000     0.949530000000     0.615050000000    -0.0283897  
C949     C      0.638180000000     0.875100000000     0.653760000000     0.0620218  
C950     C      0.657960000000     0.830700000000     0.663190000000    -0.0784244  
C951     C      0.645860000000     0.894890000000     0.634410000000    -0.0525723  
C952     C      0.683340000000     0.817600000000     0.674260000000     0.168945   
C953     C      0.682330000000     0.854680000000     0.711970000000    -0.000391178
C954     C      0.592260000000     0.885050000000     0.643460000000    -0.0535309  
C955     C      0.826610000000     0.696330000000     0.663360000000    -0.0314314  
C956     C      0.909570000000     0.581200000000     0.618460000000    -0.0294129  
C957     C      0.918630000000     0.596660000000     0.561310000000    -0.00808898 
C958     C      0.919050000000     0.559570000000     0.597900000000    -0.00823434 
C959     C      0.853310000000     0.621320000000     0.623730000000    -0.0535018  
C960     C      0.882180000000     0.655670000000     0.658690000000    -0.0528491  
C961     C      0.880880000000     0.620580000000     0.623090000000     0.0619415  
C962     C      0.909210000000     0.616820000000     0.583310000000    -0.0293192  
C963     C      0.854610000000     0.656420000000     0.659320000000     0.0624506  
C964     C      0.825510000000     0.660770000000     0.698480000000    -0.0784751  
C965     C      0.840180000000     0.639090000000     0.641650000000    -0.056178   
C966     C      0.816030000000     0.681120000000     0.720450000000     0.169442   
C967     C      0.817220000000     0.718210000000     0.683660000000     0.000720613
C968     C      0.895310000000     0.637930000000     0.640740000000    -0.0560071  
C969     C      0.826850000000     0.833700000000     0.867260000000    -0.0312556  
C970     C      0.909960000000     0.948730000000     0.912130000000    -0.0298268  
C971     C      0.919280000000     0.933260000000     0.969230000000    -0.00751539 
C972     C      0.919410000000     0.970390000000     0.932650000000    -0.00712797 
C973     C      0.853760000000     0.908560000000     0.907030000000    -0.0540217  
C974     C      0.882540000000     0.874250000000     0.871930000000    -0.0522204  
C975     C      0.881340000000     0.909290000000     0.907590000000     0.062406   
C976     C      0.909860000000     0.913090000000     0.947230000000    -0.0295116  
C977     C      0.854960000000     0.873520000000     0.871370000000     0.0621009  
C978     C      0.825850000000     0.869340000000     0.832210000000    -0.0783004  
C979     C      0.840590000000     0.890830000000     0.889100000000    -0.0558388  
C980     C      0.816280000000     0.849070000000     0.810210000000     0.168881   
C981     C      0.817360000000     0.811910000000     0.846920000000     0.000182148
C982     C      0.895720000000     0.891960000000     0.889880000000    -0.0562636  
C983     C      0.819860000000     0.693040000000     0.872190000000    -0.0314916  
C984     C      0.918280000000     0.587660000000     0.907200000000    -0.0291563  
C985     C      0.945450000000     0.614480000000     0.952700000000    -0.00862221 
C986     C      0.945600000000     0.577630000000     0.916000000000    -0.00854279 
C987     C      0.893960000000     0.648860000000     0.880890000000    -0.0533885  
C988     C      0.844030000000     0.631690000000     0.898200000000    -0.0525989  
C989     C      0.891830000000     0.628650000000     0.901310000000     0.0618511  
C990     C      0.918130000000     0.623120000000     0.942520000000    -0.0291229  
C991     C      0.846160000000     0.651930000000     0.877820000000     0.0617835  
C992     C      0.819720000000     0.657800000000     0.836730000000    -0.078251   
C993     C      0.871370000000     0.660460000000     0.869190000000    -0.0558142  
C994     C      0.792240000000     0.666420000000     0.826650000000     0.168848   
C995     C      0.792530000000     0.703210000000     0.863640000000     0.000364223
C996     C      0.866610000000     0.620090000000     0.909910000000    -0.0561846  
C997     C      0.573310000000     0.910770000000     0.946240000000    -0.0314261  
C998     C      0.661950000000     0.868740000000     0.834080000000    -0.0292785  
C999     C      0.688800000000     0.822150000000     0.859530000000    -0.00902301 
C1000    C      0.688320000000     0.859070000000     0.822250000000    -0.00905169 
C1001    C      0.643760000000     0.896660000000     0.896950000000    -0.0537653  
C1002    C      0.591810000000     0.882870000000     0.883580000000    -0.0526798  
C1003    C      0.638970000000     0.876480000000     0.877000000000     0.0614476  
C1004    C      0.662390000000     0.833690000000     0.869430000000    -0.0292432  
C1005    C      0.596600000000     0.903090000000     0.903500000000     0.0617243  
C1006    C      0.573510000000     0.946070000000     0.911150000000    -0.0779883  
C1007    C      0.622820000000     0.909900000000     0.910160000000    -0.0560591  
C1008    C      0.546990000000     0.957870000000     0.920770000000     0.168167   
C1009    C      0.546970000000     0.920720000000     0.957890000000    -0.000774157
C1010    C      0.612760000000     0.869620000000     0.870400000000    -0.0560951  
C1011    C      0.917860000000     0.907840000000     0.588080000000    -0.0312922  
C1012    C      0.819810000000     0.872700000000     0.693880000000    -0.0294327  
C1013    C      0.792310000000     0.827540000000     0.666830000000    -0.00811526 
C1014    C      0.792450000000     0.864060000000     0.703930000000    -0.00803744 
C1015    C      0.871350000000     0.869990000000     0.661190000000    -0.0563027  
C1016    C      0.866540000000     0.910850000000     0.620970000000    -0.0556531  
C1017    C      0.846120000000     0.878730000000     0.652800000000     0.0621103  
C1018    C      0.819680000000     0.837590000000     0.658250000000    -0.0293371  
C1019    C      0.891770000000     0.902090000000     0.629320000000     0.0615654  
C1020    C      0.918310000000     0.943110000000     0.623520000000    -0.0778678  
C1021    C      0.893920000000     0.881630000000     0.649490000000    -0.0521856  
C1022    C      0.945730000000     0.953200000000     0.614720000000     0.168281   
C1023    C      0.945130000000     0.916450000000     0.577750000000    -0.000199704
C1024    C      0.843970000000     0.899210000000     0.632660000000    -0.053837   
Co1      Co     0.992180000000     0.015130000000     0.056020000000     0.83588    
Co2      Co     0.492040000000     0.515570000000     0.474630000000     0.838567   
Co3      Co     0.991750000000     0.474500000000     0.015370000000     0.837142   
Co4      Co     0.491560000000     0.056160000000     0.015290000000     0.838216   
Co5      Co     0.245080000000     0.265260000000     0.224430000000     0.840653   
Co6      Co     0.244970000000     0.265280000000     0.306170000000     0.839393   
Co7      Co     0.244350000000     0.305950000000     0.265040000000     0.839684   
Co8      Co     0.244300000000     0.224620000000     0.265570000000     0.841251   
Co9      Co     0.992180000000     0.015130000000     0.556020000000     0.83589    
Co10     Co     0.492040000000     0.515570000000     0.974630000000     0.839172   
Co11     Co     0.991750000000     0.474500000000     0.515370000000     0.837933   
Co12     Co     0.491560000000     0.056160000000     0.515290000000     0.83894    
Co13     Co     0.245080000000     0.265260000000     0.724430000000     0.840657   
Co14     Co     0.244970000000     0.265280000000     0.806170000000     0.839408   
Co15     Co     0.244350000000     0.305950000000     0.765040000000     0.839715   
Co16     Co     0.244300000000     0.224620000000     0.765570000000     0.841197   
Co17     Co     0.992180000000     0.515130000000     0.056020000000     0.836658   
Co18     Co     0.492040000000     0.015570000000     0.474630000000     0.83777    
Co19     Co     0.991750000000     0.974500000000     0.015370000000     0.8377     
Co20     Co     0.491560000000     0.556160000000     0.015290000000     0.838135   
Co21     Co     0.245080000000     0.765260000000     0.224430000000     0.840642   
Co22     Co     0.244970000000     0.765280000000     0.306170000000     0.839401   
Co23     Co     0.244350000000     0.805950000000     0.265040000000     0.839683   
Co24     Co     0.244300000000     0.724620000000     0.265570000000     0.841329   
Co25     Co     0.992180000000     0.515130000000     0.556020000000     0.836669   
Co26     Co     0.492040000000     0.015570000000     0.974630000000     0.838374   
Co27     Co     0.991750000000     0.974500000000     0.515370000000     0.838492   
Co28     Co     0.491560000000     0.556160000000     0.515290000000     0.838861   
Co29     Co     0.245080000000     0.765260000000     0.724430000000     0.840646   
Co30     Co     0.244970000000     0.765280000000     0.806170000000     0.839416   
Co31     Co     0.244350000000     0.805950000000     0.765040000000     0.839714   
Co32     Co     0.244300000000     0.724620000000     0.765570000000     0.841275   
Co33     Co     0.492170000000     0.015130000000     0.056020000000     0.837075   
Co34     Co     0.992040000000     0.515570000000     0.474630000000     0.837396   
Co35     Co     0.491750000000     0.474500000000     0.015370000000     0.838296   
Co36     Co     0.991560000000     0.056160000000     0.015290000000     0.83706    
Co37     Co     0.745080000000     0.265260000000     0.224430000000     0.840657   
Co38     Co     0.744970000000     0.265280000000     0.306170000000     0.839402   
Co39     Co     0.744350000000     0.305950000000     0.265040000000     0.839692   
Co40     Co     0.744300000000     0.224620000000     0.265570000000     0.841256   
Co41     Co     0.492170000000     0.015130000000     0.556020000000     0.837086   
Co42     Co     0.992040000000     0.515570000000     0.974630000000     0.838003   
Co43     Co     0.491750000000     0.474500000000     0.515370000000     0.839089   
Co44     Co     0.991560000000     0.056160000000     0.515290000000     0.837782   
Co45     Co     0.745080000000     0.265260000000     0.724430000000     0.840662   
Co46     Co     0.744970000000     0.265280000000     0.806170000000     0.839417   
Co47     Co     0.744350000000     0.305950000000     0.765040000000     0.839724   
Co48     Co     0.744300000000     0.224620000000     0.765570000000     0.841201   
Co49     Co     0.492170000000     0.515130000000     0.056020000000     0.837855   
Co50     Co     0.992040000000     0.015570000000     0.474630000000     0.836601   
Co51     Co     0.491750000000     0.974500000000     0.015370000000     0.838852   
Co52     Co     0.991560000000     0.556160000000     0.015290000000     0.836978   
Co53     Co     0.745080000000     0.765260000000     0.224430000000     0.840646   
Co54     Co     0.744970000000     0.765280000000     0.306170000000     0.83941    
Co55     Co     0.744350000000     0.805950000000     0.265040000000     0.839691   
Co56     Co     0.744300000000     0.724620000000     0.265570000000     0.841334   
Co57     Co     0.492170000000     0.515130000000     0.556020000000     0.837867   
Co58     Co     0.992040000000     0.015570000000     0.974630000000     0.837207   
Co59     Co     0.491750000000     0.974500000000     0.515370000000     0.839646   
Co60     Co     0.991560000000     0.556160000000     0.515290000000     0.837702   
Co61     Co     0.745080000000     0.765260000000     0.724430000000     0.84065    
Co62     Co     0.744970000000     0.765280000000     0.806170000000     0.839425   
Co63     Co     0.744350000000     0.805950000000     0.765040000000     0.839723   
Co64     Co     0.744300000000     0.724620000000     0.765570000000     0.841279   
H1       H      0.072120000000     0.153260000000     0.152010000000     0.0452042  
H2       H      0.161330000000     0.200580000000     0.138250000000     0.0359159  
H3       H      0.159810000000     0.139410000000     0.200330000000     0.0506149  
H4       H      0.031300000000     0.123930000000     0.079850000000     0.0418151  
H5       H      0.205170000000     0.200620000000     0.157000000000     0.0487684  
H6       H      0.075700000000     0.080900000000     0.141590000000     0.0351452  
H7       H      0.075290000000     0.142420000000     0.079850000000     0.0348355  
H8       H      0.048250000000     0.050200000000     0.111350000000     0.0459301  
H9       H      0.187300000000     0.170180000000     0.230940000000     0.00753615 
H10      H      0.108930000000     0.176440000000     0.175240000000     0.0406985  
H11      H      0.188720000000     0.231040000000     0.168830000000     0.0442774  
H12      H      0.127330000000     0.105460000000     0.104440000000     0.0410292  
H13      H      0.146520000000     0.207960000000     0.171140000000     0.0362269  
H14      H      0.047770000000     0.111900000000     0.049510000000     0.0461584  
H15      H      0.090150000000     0.073830000000     0.108450000000     0.0368565  
H16      H      0.089890000000     0.109350000000     0.072810000000     0.0367073  
H17      H      0.164140000000     0.128590000000     0.127730000000     0.0481513  
H18      H      0.146070000000     0.172870000000     0.206950000000     0.0456332  
H19      H      0.031610000000     0.080430000000     0.123430000000     0.0417415  
H20      H      0.208530000000     0.137040000000     0.211160000000     0.140775   
H21      H      0.165720000000     0.132710000000     0.399700000000     0.0469376  
H22      H      0.080840000000     0.077860000000     0.392610000000     0.0361779  
H23      H      0.080930000000     0.139180000000     0.454450000000     0.0510691  
H24      H      0.198210000000     0.162260000000     0.323180000000     0.049426   
H25      H      0.038040000000     0.073320000000     0.412200000000     0.0492895  
H26      H      0.156030000000     0.204330000000     0.389320000000     0.0354182  
H27      H      0.155310000000     0.142810000000     0.327700000000     0.035509   
H28      H      0.179610000000     0.236430000000     0.356220000000     0.0439093  
H29      H      0.056790000000     0.105950000000     0.486250000000     0.00513279 
H30      H      0.132500000000     0.106710000000     0.425720000000     0.0407591  
H31      H      0.057320000000     0.045470000000     0.425460000000     0.0422036  
H32      H      0.103880000000     0.175700000000     0.356630000000     0.0413659  
H33      H      0.097280000000     0.072030000000     0.424930000000     0.0354231  
H34      H      0.178920000000     0.175630000000     0.295400000000     0.0451543  
H35      H      0.139390000000     0.210220000000     0.357120000000     0.0360975  
H36      H      0.139010000000     0.175260000000     0.322060000000     0.0358583  
H37      H      0.070680000000     0.149650000000     0.382590000000     0.04902    
H38      H      0.096740000000     0.106590000000     0.460190000000     0.0449972  
H39      H      0.198740000000     0.208400000000     0.369330000000     0.0463366  
H40      H      0.033120000000     0.138780000000     0.469380000000     0.141102   
H41      H      0.071540000000     0.381130000000     0.147090000000     0.047435   
H42      H      0.156110000000     0.388220000000     0.202350000000     0.0363075  
H43      H      0.156640000000     0.326740000000     0.140670000000     0.0509984  
H44      H      0.038870000000     0.457880000000     0.118060000000     0.0497027  
H45      H      0.198980000000     0.368710000000     0.206950000000     0.0488188  
H46      H      0.081560000000     0.392120000000     0.075710000000     0.0354039  
H47      H      0.081710000000     0.453370000000     0.137590000000     0.0357705  
H48      H      0.057900000000     0.425300000000     0.043760000000     0.0438207  
H49      H      0.180640000000     0.294790000000     0.173860000000     0.00526864 
H50      H      0.104740000000     0.355000000000     0.172990000000     0.0411406  
H51      H      0.179590000000     0.355340000000     0.234660000000     0.0420182  
H52      H      0.133400000000     0.424910000000     0.104850000000     0.0410805  
H53      H      0.139760000000     0.355790000000     0.207880000000     0.0358498  
H54      H      0.058090000000     0.485770000000     0.104800000000     0.0446339  
H55      H      0.098020000000     0.424480000000     0.070110000000     0.0357715  
H56      H      0.098100000000     0.459290000000     0.105260000000     0.0357647  
H57      H      0.166580000000     0.398830000000     0.130810000000     0.0486555  
H58      H      0.140600000000     0.320730000000     0.173080000000     0.0451198  
H59      H      0.038750000000     0.411810000000     0.071580000000     0.046881   
H60      H      0.204500000000     0.312010000000     0.141360000000     0.141164   
H61      H      0.416640000000     0.137780000000     0.140590000000     0.0420986  
H62      H      0.339170000000     0.206510000000     0.147570000000     0.0368522  
H63      H      0.337140000000     0.144200000000     0.208630000000     0.0511958  
H64      H      0.401230000000     0.089340000000     0.049470000000     0.0388454  
H65      H      0.334630000000     0.229890000000     0.191170000000     0.0490431  
H66      H      0.397510000000     0.070720000000     0.134460000000     0.035149   
H67      H      0.396890000000     0.132860000000     0.073210000000     0.035336   
H68      H      0.432440000000     0.045100000000     0.108780000000     0.046618   
H69      H      0.301510000000     0.170070000000     0.233710000000     0.0105206  
H70      H      0.393490000000     0.168940000000     0.172150000000     0.0487502  
H71      H      0.304280000000     0.232890000000     0.172470000000     0.0458746  
H72      H      0.342000000000     0.108110000000     0.110230000000     0.04531    
H73      H      0.309200000000     0.187200000000     0.152800000000     0.040393   
H74      H      0.431730000000     0.107890000000     0.046810000000     0.046529   
H75      H      0.426990000000     0.090680000000     0.128680000000     0.0392971  
H76      H      0.426630000000     0.127100000000     0.092750000000     0.0393627  
H77      H      0.318850000000     0.139330000000     0.141700000000     0.0427934  
H78      H      0.308030000000     0.151050000000     0.188600000000     0.0504385  
H79      H      0.401720000000     0.047600000000     0.090630000000     0.0385622  
H80      H      0.340650000000     0.175280000000     0.250550000000     0.139376   
H81      H      0.417050000000     0.392110000000     0.389970000000     0.0438091  
H82      H      0.339390000000     0.323440000000     0.383010000000     0.0366819  
H83      H      0.337530000000     0.385880000000     0.322090000000     0.0509575  
H84      H      0.401910000000     0.440440000000     0.481190000000     0.0386814  
H85      H      0.334730000000     0.300180000000     0.339360000000     0.0492152  
H86      H      0.397810000000     0.459160000000     0.396160000000     0.0357815  
H87      H      0.397650000000     0.396980000000     0.457370000000     0.0355544  
H88      H      0.432750000000     0.484890000000     0.421740000000     0.0479966  
H89      H      0.301810000000     0.360200000000     0.296970000000     0.00850559 
H90      H      0.393820000000     0.361010000000     0.358420000000     0.0492543  
H91      H      0.304390000000     0.297250000000     0.358090000000     0.0450589  
H92      H      0.342490000000     0.421760000000     0.420570000000     0.0450426  
H93      H      0.309480000000     0.342870000000     0.377860000000     0.0384767  
H94      H      0.432520000000     0.422080000000     0.483620000000     0.0470863  
H95      H      0.427380000000     0.439310000000     0.401850000000     0.0422335  
H96      H      0.427280000000     0.402900000000     0.437710000000     0.041297   
H97      H      0.319260000000     0.390610000000     0.389100000000     0.041224   
H98      H      0.308410000000     0.379110000000     0.342120000000     0.0475604  
H99      H      0.402060000000     0.482330000000     0.439950000000     0.0386485  
H100     H      0.340930000000     0.354850000000     0.280130000000     0.13983    
H101     H      0.364400000000     0.104510000000     0.425630000000     0.0416517  
H102     H      0.322370000000     0.196890000000     0.394610000000     0.0367747  
H103     H      0.322470000000     0.135440000000     0.332660000000     0.0504117  
H104     H      0.460400000000     0.128300000000     0.443270000000     0.0464359  
H105     H      0.277630000000     0.193920000000     0.377620000000     0.0489001  
H106     H      0.415950000000     0.083730000000     0.384780000000     0.0355969  
H107     H      0.415690000000     0.145550000000     0.446340000000     0.0359438  
H108     H      0.446500000000     0.054960000000     0.413080000000     0.0472478  
H109     H      0.292090000000     0.164420000000     0.303790000000     0.00987717 
H110     H      0.324770000000     0.124930000000     0.405040000000     0.048134   
H111     H      0.291800000000     0.225880000000     0.366560000000     0.0454107  
H112     H      0.413210000000     0.155640000000     0.374070000000     0.0463862  
H113     H      0.335130000000     0.205100000000     0.360960000000     0.0396321  
H114     H      0.446240000000     0.117520000000     0.475350000000     0.0482517  
H115     H      0.402980000000     0.075580000000     0.418350000000     0.0383892  
H116     H      0.402840000000     0.111940000000     0.454560000000     0.0385106  
H117     H      0.373580000000     0.176050000000     0.353470000000     0.0426621  
H118     H      0.334900000000     0.169200000000     0.324730000000     0.0484963  
H119     H      0.460580000000     0.087070000000     0.402230000000     0.0431979  
H120     H      0.272960000000     0.131850000000     0.326750000000     0.140295   
H121     H      0.108510000000     0.354090000000     0.355080000000     0.0414028  
H122     H      0.074980000000     0.388260000000     0.450130000000     0.0362946  
H123     H      0.075810000000     0.450140000000     0.388740000000     0.0506776  
H124     H      0.204650000000     0.329760000000     0.373370000000     0.0413977  
H125     H      0.031070000000     0.406860000000     0.450410000000     0.0492767  
H126     H      0.159960000000     0.391190000000     0.330040000000     0.0350767  
H127     H      0.160700000000     0.329840000000     0.391930000000     0.0350198  
H128     H      0.187390000000     0.360790000000     0.299460000000     0.0456443  
H129     H      0.048430000000     0.480760000000     0.419610000000     0.00741333 
H130     H      0.071750000000     0.377420000000     0.378270000000     0.0487621  
H131     H      0.047690000000     0.418810000000     0.480680000000     0.0440018  
H132     H      0.163820000000     0.402140000000     0.402260000000     0.0448265  
H133     H      0.089720000000     0.421250000000     0.457280000000     0.0362418  
H134     H      0.188200000000     0.299360000000     0.361470000000     0.0456338  
H135     H      0.145590000000     0.357950000000     0.323260000000     0.0370587  
H136     H      0.146040000000     0.322550000000     0.358960000000     0.0369887  
H137     H      0.127070000000     0.425420000000     0.425490000000     0.0404939  
H138     H      0.089780000000     0.456940000000     0.422040000000     0.0455088  
H139     H      0.204100000000     0.373210000000     0.329490000000     0.0412282  
H140     H      0.027020000000     0.460710000000     0.386750000000     0.141156   
H141     H      0.324710000000     0.406130000000     0.126000000000     0.0456824  
H142     H      0.415330000000     0.385430000000     0.084150000000     0.0366388  
H143     H      0.415750000000     0.447050000000     0.145930000000     0.0505259  
H144     H      0.277410000000     0.337070000000     0.153020000000     0.0461839  
H145     H      0.460090000000     0.402450000000     0.086900000000     0.0493876  
H146     H      0.322320000000     0.395090000000     0.197940000000     0.0353981  
H147     H      0.322100000000     0.333860000000     0.135800000000     0.0360478  
H148     H      0.291670000000     0.366750000000     0.226620000000     0.0477771  
H149     H      0.445960000000     0.476050000000     0.116930000000     0.0085054  
H150     H      0.364310000000     0.426630000000     0.105440000000     0.0410513  
H151     H      0.445710000000     0.413600000000     0.055080000000     0.0449408  
H152     H      0.373570000000     0.354200000000     0.176710000000     0.043234   
H153     H      0.402520000000     0.419130000000     0.076200000000     0.0378719  
H154     H      0.291410000000     0.304890000000     0.163740000000     0.0489023  
H155     H      0.335060000000     0.361350000000     0.205830000000     0.0398985  
H156     H      0.334910000000     0.325410000000     0.169360000000     0.0402181  
H157     H      0.413180000000     0.374690000000     0.156130000000     0.0488679  
H158     H      0.403050000000     0.455230000000     0.112350000000     0.046923   
H159     H      0.277560000000     0.378080000000     0.194700000000     0.0427947  
H160     H      0.465320000000     0.452720000000     0.149090000000     0.14027    
H161     H      0.072120000000     0.153260000000     0.652010000000     0.0452128  
H162     H      0.161330000000     0.200580000000     0.638250000000     0.035948   
H163     H      0.159810000000     0.139410000000     0.700330000000     0.050615   
H164     H      0.031300000000     0.123930000000     0.579850000000     0.0418463  
H165     H      0.205170000000     0.200620000000     0.657000000000     0.0487901  
H166     H      0.075700000000     0.080900000000     0.641590000000     0.0351342  
H167     H      0.075290000000     0.142420000000     0.579850000000     0.0348948  
H168     H      0.048250000000     0.050200000000     0.611350000000     0.0459615  
H169     H      0.187300000000     0.170180000000     0.730940000000     0.00752571 
H170     H      0.108930000000     0.176440000000     0.675240000000     0.0406986  
H171     H      0.188720000000     0.231040000000     0.668830000000     0.044289   
H172     H      0.127330000000     0.105460000000     0.604440000000     0.0410652  
H173     H      0.146520000000     0.207960000000     0.671140000000     0.0362351  
H174     H      0.047770000000     0.111900000000     0.549510000000     0.046266   
H175     H      0.090150000000     0.073830000000     0.608450000000     0.0368708  
H176     H      0.089890000000     0.109350000000     0.572810000000     0.0367738  
H177     H      0.164140000000     0.128590000000     0.627730000000     0.0481839  
H178     H      0.146070000000     0.172870000000     0.706950000000     0.0456344  
H179     H      0.031610000000     0.080430000000     0.623430000000     0.0417668  
H180     H      0.208530000000     0.137040000000     0.711150000000     0.140872   
H181     H      0.165720000000     0.132710000000     0.899700000000     0.0469669  
H182     H      0.080840000000     0.077860000000     0.892610000000     0.0361799  
H183     H      0.080930000000     0.139180000000     0.954450000000     0.0511442  
H184     H      0.198210000000     0.162260000000     0.823180000000     0.049425   
H185     H      0.038040000000     0.073320000000     0.912200000000     0.0492752  
H186     H      0.156030000000     0.204330000000     0.889320000000     0.0354511  
H187     H      0.155310000000     0.142810000000     0.827700000000     0.0355087  
H188     H      0.179610000000     0.236430000000     0.856220000000     0.0439195  
H189     H      0.056790000000     0.105950000000     0.986250000000     0.00526695 
H190     H      0.132500000000     0.106710000000     0.925720000000     0.0407986  
H191     H      0.057320000000     0.045470000000     0.925460000000     0.0422115  
H192     H      0.103880000000     0.175700000000     0.856630000000     0.0413689  
H193     H      0.097280000000     0.072030000000     0.924930000000     0.0354536  
H194     H      0.178920000000     0.175630000000     0.795400000000     0.0451502  
H195     H      0.139390000000     0.210220000000     0.857120000000     0.036106   
H196     H      0.139010000000     0.175260000000     0.822060000000     0.0358578  
H197     H      0.070680000000     0.149650000000     0.882590000000     0.0490266  
H198     H      0.096740000000     0.106590000000     0.960190000000     0.0450823  
H199     H      0.198740000000     0.208400000000     0.869330000000     0.0463538  
H200     H      0.033120000000     0.138780000000     0.969380000000     0.141196   
H201     H      0.071540000000     0.381130000000     0.647090000000     0.0474439  
H202     H      0.156110000000     0.388220000000     0.702340000000     0.0363114  
H203     H      0.156640000000     0.326740000000     0.640670000000     0.0510273  
H204     H      0.038870000000     0.457880000000     0.618060000000     0.0496981  
H205     H      0.198980000000     0.368710000000     0.706950000000     0.0488448  
H206     H      0.081560000000     0.392120000000     0.575710000000     0.0354624  
H207     H      0.081710000000     0.453370000000     0.637590000000     0.0357714  
H208     H      0.057900000000     0.425300000000     0.543760000000     0.0439371  
H209     H      0.180640000000     0.294790000000     0.673860000000     0.00527602 
H210     H      0.104740000000     0.355000000000     0.672990000000     0.0411143  
H211     H      0.179590000000     0.355340000000     0.734660000000     0.0420426  
H212     H      0.133400000000     0.424910000000     0.604850000000     0.0411155  
H213     H      0.139760000000     0.355790000000     0.707880000000     0.0358451  
H214     H      0.058090000000     0.485770000000     0.604800000000     0.0446454  
H215     H      0.098020000000     0.424480000000     0.570110000000     0.0358338  
H216     H      0.098100000000     0.459290000000     0.605260000000     0.0357908  
H217     H      0.166580000000     0.398830000000     0.630810000000     0.048679   
H218     H      0.140600000000     0.320730000000     0.673080000000     0.0451278  
H219     H      0.038750000000     0.411810000000     0.571580000000     0.0469236  
H220     H      0.204500000000     0.312010000000     0.641360000000     0.141194   
H221     H      0.416640000000     0.137780000000     0.640590000000     0.0421081  
H222     H      0.339170000000     0.206510000000     0.647580000000     0.0369044  
H223     H      0.337140000000     0.144200000000     0.708630000000     0.0512047  
H224     H      0.401230000000     0.089340000000     0.549470000000     0.0389403  
H225     H      0.334630000000     0.229890000000     0.691170000000     0.0490554  
H226     H      0.397510000000     0.070720000000     0.634460000000     0.0351514  
H227     H      0.396890000000     0.132860000000     0.573210000000     0.0353974  
H228     H      0.432440000000     0.045100000000     0.608780000000     0.0466208  
H229     H      0.301510000000     0.170070000000     0.733710000000     0.0105425  
H230     H      0.393490000000     0.168940000000     0.672150000000     0.0487472  
H231     H      0.304280000000     0.232890000000     0.672470000000     0.0458927  
H232     H      0.342000000000     0.108110000000     0.610230000000     0.0453513  
H233     H      0.309200000000     0.187200000000     0.652800000000     0.0404257  
H234     H      0.431730000000     0.107890000000     0.546810000000     0.0466251  
H235     H      0.426990000000     0.090680000000     0.628680000000     0.0392938  
H236     H      0.426630000000     0.127100000000     0.592750000000     0.0393844  
H237     H      0.318850000000     0.139330000000     0.641700000000     0.0428044  
H238     H      0.308030000000     0.151050000000     0.688600000000     0.0504466  
H239     H      0.401720000000     0.047600000000     0.590630000000     0.0385984  
H240     H      0.340650000000     0.175280000000     0.750550000000     0.139369   
H241     H      0.417050000000     0.392110000000     0.889970000000     0.0438177  
H242     H      0.339390000000     0.323440000000     0.883010000000     0.0367089  
H243     H      0.337530000000     0.385880000000     0.822090000000     0.0509973  
H244     H      0.401910000000     0.440440000000     0.981190000000     0.0388063  
H245     H      0.334730000000     0.300180000000     0.839360000000     0.0492346  
H246     H      0.397810000000     0.459160000000     0.896160000000     0.0357902  
H247     H      0.397650000000     0.396980000000     0.957370000000     0.035598   
H248     H      0.432750000000     0.484890000000     0.921730000000     0.0479706  
H249     H      0.301810000000     0.360200000000     0.796970000000     0.00848383 
H250     H      0.393820000000     0.361010000000     0.858420000000     0.0492584  
H251     H      0.304390000000     0.297250000000     0.858090000000     0.0450841  
H252     H      0.342490000000     0.421760000000     0.920570000000     0.0450867  
H253     H      0.309480000000     0.342870000000     0.877860000000     0.0384953  
H254     H      0.432520000000     0.422080000000     0.983620000000     0.0472105  
H255     H      0.427380000000     0.439310000000     0.901850000000     0.042238   
H256     H      0.427280000000     0.402900000000     0.937710000000     0.0413061  
H257     H      0.319260000000     0.390610000000     0.889100000000     0.0412438  
H258     H      0.308410000000     0.379110000000     0.842120000000     0.0475855  
H259     H      0.402060000000     0.482330000000     0.939950000000     0.0386728  
H260     H      0.340930000000     0.354850000000     0.780130000000     0.139833   
H261     H      0.364400000000     0.104510000000     0.925630000000     0.0417219  
H262     H      0.322370000000     0.196890000000     0.894610000000     0.0368133  
H263     H      0.322470000000     0.135440000000     0.832660000000     0.0504195  
H264     H      0.460400000000     0.128300000000     0.943270000000     0.0464808  
H265     H      0.277630000000     0.193920000000     0.877620000000     0.0489202  
H266     H      0.415950000000     0.083730000000     0.884780000000     0.0355994  
H267     H      0.415690000000     0.145550000000     0.946340000000     0.0360011  
H268     H      0.446500000000     0.054960000000     0.913080000000     0.0472392  
H269     H      0.292090000000     0.164420000000     0.803790000000     0.00985477 
H270     H      0.324770000000     0.124930000000     0.905040000000     0.048164   
H271     H      0.291800000000     0.225880000000     0.866560000000     0.0454235  
H272     H      0.413210000000     0.155640000000     0.874070000000     0.0463952  
H273     H      0.335130000000     0.205100000000     0.860960000000     0.039641   
H274     H      0.446240000000     0.117520000000     0.975350000000     0.0483649  
H275     H      0.402980000000     0.075580000000     0.918350000000     0.0384171  
H276     H      0.402840000000     0.111940000000     0.954560000000     0.0385767  
H277     H      0.373580000000     0.176050000000     0.853470000000     0.0426624  
H278     H      0.334900000000     0.169200000000     0.824730000000     0.0485025  
H279     H      0.460580000000     0.087070000000     0.902230000000     0.0431839  
H280     H      0.272960000000     0.131850000000     0.826750000000     0.140401   
H281     H      0.108510000000     0.354090000000     0.855080000000     0.0414084  
H282     H      0.074980000000     0.388260000000     0.950130000000     0.0363582  
H283     H      0.075810000000     0.450140000000     0.888740000000     0.0506766  
H284     H      0.204650000000     0.329760000000     0.873380000000     0.0414048  
H285     H      0.031070000000     0.406860000000     0.950410000000     0.0493174  
H286     H      0.159960000000     0.391190000000     0.830040000000     0.0350758  
H287     H      0.160700000000     0.329840000000     0.891930000000     0.0350549  
H288     H      0.187390000000     0.360790000000     0.799460000000     0.0456453  
H289     H      0.048430000000     0.480760000000     0.919610000000     0.00742763 
H290     H      0.071750000000     0.377420000000     0.878270000000     0.0487687  
H291     H      0.047690000000     0.418810000000     0.980680000000     0.0441199  
H292     H      0.163820000000     0.402140000000     0.902250000000     0.0448705  
H293     H      0.089720000000     0.421250000000     0.957280000000     0.0363123  
H294     H      0.188200000000     0.299360000000     0.861470000000     0.0456446  
H295     H      0.145590000000     0.357950000000     0.823260000000     0.0370545  
H296     H      0.146040000000     0.322550000000     0.858950000000     0.0369934  
H297     H      0.127070000000     0.425420000000     0.925490000000     0.0405336  
H298     H      0.089780000000     0.456940000000     0.922040000000     0.0455287  
H299     H      0.204100000000     0.373210000000     0.829490000000     0.0412352  
H300     H      0.027020000000     0.460710000000     0.886750000000     0.141148   
H301     H      0.324710000000     0.406130000000     0.626000000000     0.0457151  
H302     H      0.415330000000     0.385430000000     0.584150000000     0.0366932  
H303     H      0.415750000000     0.447050000000     0.645930000000     0.0505254  
H304     H      0.277410000000     0.337070000000     0.653020000000     0.0462069  
H305     H      0.460090000000     0.402450000000     0.586890000000     0.0494149  
H306     H      0.322320000000     0.395090000000     0.697940000000     0.0353924  
H307     H      0.322100000000     0.333860000000     0.635800000000     0.0360805  
H308     H      0.291670000000     0.366750000000     0.726620000000     0.0478005  
H309     H      0.445960000000     0.476050000000     0.616930000000     0.00850774 
H310     H      0.364310000000     0.426630000000     0.605440000000     0.0410871  
H311     H      0.445710000000     0.413600000000     0.555080000000     0.0450384  
H312     H      0.373570000000     0.354200000000     0.676700000000     0.0432626  
H313     H      0.402520000000     0.419130000000     0.576200000000     0.0379339  
H314     H      0.291410000000     0.304890000000     0.663740000000     0.0489177  
H315     H      0.335060000000     0.361350000000     0.705830000000     0.0398912  
H316     H      0.334910000000     0.325410000000     0.669360000000     0.0402243  
H317     H      0.413180000000     0.374690000000     0.656120000000     0.0488822  
H318     H      0.403050000000     0.455230000000     0.612350000000     0.046943   
H319     H      0.277560000000     0.378080000000     0.694700000000     0.042821   
H320     H      0.465320000000     0.452720000000     0.649090000000     0.140265   
H321     H      0.072120000000     0.653260000000     0.152010000000     0.0452153  
H322     H      0.161330000000     0.700570000000     0.138250000000     0.035928   
H323     H      0.159810000000     0.639410000000     0.200330000000     0.0506449  
H324     H      0.031300000000     0.623930000000     0.079850000000     0.0418175  
H325     H      0.205170000000     0.700620000000     0.157000000000     0.048771   
H326     H      0.075700000000     0.580900000000     0.141590000000     0.0352038  
H327     H      0.075290000000     0.642420000000     0.079850000000     0.0348343  
H328     H      0.048250000000     0.550200000000     0.111350000000     0.0460393  
H329     H      0.187300000000     0.670180000000     0.230940000000     0.00754378 
H330     H      0.108930000000     0.676440000000     0.175240000000     0.0406992  
H331     H      0.188720000000     0.731040000000     0.168830000000     0.0442747  
H332     H      0.127330000000     0.605460000000     0.104440000000     0.0410633  
H333     H      0.146520000000     0.707960000000     0.171140000000     0.0362288  
H334     H      0.047770000000     0.611890000000     0.049510000000     0.0461795  
H335     H      0.090150000000     0.573830000000     0.108450000000     0.0369198  
H336     H      0.089890000000     0.609350000000     0.072810000000     0.0367288  
H337     H      0.164140000000     0.628590000000     0.127730000000     0.0481807  
H338     H      0.146070000000     0.672870000000     0.206950000000     0.0456405  
H339     H      0.031610000000     0.580430000000     0.123430000000     0.0417792  
H340     H      0.208530000000     0.637040000000     0.211160000000     0.140807   
H341     H      0.165720000000     0.632710000000     0.399700000000     0.0469562  
H342     H      0.080840000000     0.577860000000     0.392610000000     0.0362361  
H343     H      0.080930000000     0.639180000000     0.454450000000     0.0510692  
H344     H      0.198210000000     0.662260000000     0.323180000000     0.0494392  
H345     H      0.038040000000     0.573320000000     0.412200000000     0.0493318  
H346     H      0.156030000000     0.704330000000     0.389320000000     0.0354047  
H347     H      0.155310000000     0.642810000000     0.327700000000     0.0355389  
H348     H      0.179610000000     0.736430000000     0.356220000000     0.0439107  
H349     H      0.056790000000     0.605950000000     0.486250000000     0.00514416 
H350     H      0.132500000000     0.606710000000     0.425720000000     0.040798   
H351     H      0.057320000000     0.545470000000     0.425460000000     0.0423181  
H352     H      0.103880000000     0.675700000000     0.356630000000     0.0413646  
H353     H      0.097280000000     0.572030000000     0.424930000000     0.0354836  
H354     H      0.178920000000     0.675630000000     0.295400000000     0.0451616  
H355     H      0.139390000000     0.710220000000     0.357120000000     0.0360833  
H356     H      0.139010000000     0.675260000000     0.322060000000     0.0358702  
H357     H      0.070680000000     0.649650000000     0.382590000000     0.0490321  
H358     H      0.096740000000     0.606590000000     0.460190000000     0.0450218  
H359     H      0.198740000000     0.708400000000     0.369330000000     0.0463426  
H360     H      0.033120000000     0.638780000000     0.469380000000     0.141099   
H361     H      0.071540000000     0.881130000000     0.147090000000     0.047442   
H362     H      0.156110000000     0.888220000000     0.202350000000     0.0363407  
H363     H      0.156640000000     0.826740000000     0.140670000000     0.0509977  
H364     H      0.038870000000     0.957880000000     0.118060000000     0.049747   
H365     H      0.198980000000     0.868710000000     0.206950000000     0.0488398  
H366     H      0.081560000000     0.892120000000     0.075710000000     0.0354049  
H367     H      0.081710000000     0.953370000000     0.137590000000     0.0358331  
H368     H      0.057900000000     0.925300000000     0.043760000000     0.0438354  
H369     H      0.180640000000     0.794790000000     0.173860000000     0.00526651 
H370     H      0.104740000000     0.855000000000     0.172990000000     0.041143   
H371     H      0.179590000000     0.855340000000     0.234660000000     0.0420288  
H372     H      0.133400000000     0.924910000000     0.104850000000     0.0411201  
H373     H      0.139760000000     0.855790000000     0.207880000000     0.0358573  
H374     H      0.058090000000     0.985770000000     0.104800000000     0.0447578  
H375     H      0.098020000000     0.924480000000     0.070110000000     0.0358011  
H376     H      0.098100000000     0.959290000000     0.105260000000     0.0358328  
H377     H      0.166580000000     0.898830000000     0.130810000000     0.0486854  
H378     H      0.140600000000     0.820730000000     0.173080000000     0.0451171  
H379     H      0.038750000000     0.911810000000     0.071580000000     0.0468754  
H380     H      0.204500000000     0.812010000000     0.141360000000     0.141164   
H381     H      0.416640000000     0.637780000000     0.140590000000     0.0421003  
H382     H      0.339170000000     0.706510000000     0.147570000000     0.0368506  
H383     H      0.337140000000     0.644200000000     0.208630000000     0.0512227  
H384     H      0.401230000000     0.589330000000     0.049470000000     0.0388843  
H385     H      0.334630000000     0.729890000000     0.191170000000     0.0490407  
H386     H      0.397510000000     0.570720000000     0.134460000000     0.0352156  
H387     H      0.396890000000     0.632860000000     0.073210000000     0.0353407  
H388     H      0.432440000000     0.545100000000     0.108780000000     0.0467106  
H389     H      0.301510000000     0.670070000000     0.233710000000     0.0105309  
H390     H      0.393490000000     0.668930000000     0.172150000000     0.0487772  
H391     H      0.304280000000     0.732890000000     0.172470000000     0.045873   
H392     H      0.342000000000     0.608110000000     0.110230000000     0.0453479  
H393     H      0.309200000000     0.687200000000     0.152800000000     0.0403969  
H394     H      0.431730000000     0.607890000000     0.046810000000     0.0465323  
H395     H      0.426990000000     0.590680000000     0.128680000000     0.0393223  
H396     H      0.426630000000     0.627100000000     0.092750000000     0.039361   
H397     H      0.318850000000     0.639330000000     0.141700000000     0.0428142  
H398     H      0.308030000000     0.651050000000     0.188600000000     0.0504585  
H399     H      0.401720000000     0.547590000000     0.090630000000     0.038642   
H400     H      0.340650000000     0.675280000000     0.250550000000     0.139387   
H401     H      0.417050000000     0.892110000000     0.389970000000     0.0438171  
H402     H      0.339390000000     0.823440000000     0.383010000000     0.0366801  
H403     H      0.337530000000     0.885880000000     0.322090000000     0.0509882  
H404     H      0.401910000000     0.940440000000     0.481190000000     0.0387278  
H405     H      0.334730000000     0.800180000000     0.339360000000     0.0492126  
H406     H      0.397810000000     0.959160000000     0.396160000000     0.0358511  
H407     H      0.397650000000     0.896980000000     0.457370000000     0.0355582  
H408     H      0.432750000000     0.984890000000     0.421740000000     0.0481059  
H409     H      0.301810000000     0.860200000000     0.296970000000     0.00851916 
H410     H      0.393820000000     0.861010000000     0.358420000000     0.0492584  
H411     H      0.304390000000     0.797250000000     0.358090000000     0.0450577  
H412     H      0.342490000000     0.921760000000     0.420570000000     0.0450874  
H413     H      0.309480000000     0.842870000000     0.377860000000     0.038482   
H414     H      0.432520000000     0.922080000000     0.483620000000     0.0470916  
H415     H      0.427380000000     0.939310000000     0.401850000000     0.0422579  
H416     H      0.427280000000     0.902900000000     0.437710000000     0.0412945  
H417     H      0.319260000000     0.890610000000     0.389100000000     0.0412452  
H418     H      0.308410000000     0.879110000000     0.342120000000     0.0475844  
H419     H      0.402060000000     0.982330000000     0.439950000000     0.0387609  
H420     H      0.340930000000     0.854850000000     0.280130000000     0.139844   
H421     H      0.364400000000     0.604510000000     0.425630000000     0.0416895  
H422     H      0.322370000000     0.696890000000     0.394610000000     0.0367753  
H423     H      0.322470000000     0.635440000000     0.332660000000     0.0504435  
H424     H      0.460400000000     0.628300000000     0.443270000000     0.0464368  
H425     H      0.277630000000     0.693920000000     0.377620000000     0.0489034  
H426     H      0.415950000000     0.583730000000     0.384780000000     0.0356535  
H427     H      0.415690000000     0.645560000000     0.446340000000     0.0359196  
H428     H      0.446500000000     0.554960000000     0.413080000000     0.047347   
H429     H      0.292090000000     0.664420000000     0.303790000000     0.00987813 
H430     H      0.324770000000     0.624930000000     0.405040000000     0.0481652  
H431     H      0.291800000000     0.725880000000     0.366560000000     0.0454068  
H432     H      0.413210000000     0.655640000000     0.374070000000     0.0463926  
H433     H      0.335130000000     0.705100000000     0.360960000000     0.0396298  
H434     H      0.446240000000     0.617520000000     0.475350000000     0.048258   
H435     H      0.402980000000     0.575580000000     0.418350000000     0.0384532  
H436     H      0.402840000000     0.611940000000     0.454560000000     0.0385214  
H437     H      0.373580000000     0.676050000000     0.353470000000     0.0426639  
H438     H      0.334900000000     0.669200000000     0.324730000000     0.0485037  
H439     H      0.460580000000     0.587070000000     0.402230000000     0.0432293  
H440     H      0.272960000000     0.631850000000     0.326750000000     0.14033    
H441     H      0.108510000000     0.854090000000     0.355080000000     0.041404   
H442     H      0.074980000000     0.888260000000     0.450130000000     0.0362955  
H443     H      0.075810000000     0.950130000000     0.388740000000     0.0507555  
H444     H      0.204650000000     0.829760000000     0.373370000000     0.041404   
H445     H      0.031070000000     0.906860000000     0.450410000000     0.0492719  
H446     H      0.159960000000     0.891190000000     0.330040000000     0.0351107  
H447     H      0.160700000000     0.829840000000     0.391930000000     0.0350201  
H448     H      0.187390000000     0.860780000000     0.299460000000     0.0456733  
H449     H      0.048430000000     0.980760000000     0.419610000000     0.00752128 
H450     H      0.071750000000     0.877420000000     0.378270000000     0.0487689  
H451     H      0.047690000000     0.918810000000     0.480680000000     0.0440086  
H452     H      0.163820000000     0.902140000000     0.402260000000     0.0448602  
H453     H      0.089720000000     0.921250000000     0.457280000000     0.0362694  
H454     H      0.188200000000     0.799360000000     0.361470000000     0.0456321  
H455     H      0.145590000000     0.857950000000     0.323260000000     0.0370638  
H456     H      0.146040000000     0.822550000000     0.358960000000     0.0369858  
H457     H      0.127070000000     0.925420000000     0.425490000000     0.0405327  
H458     H      0.089780000000     0.956940000000     0.422040000000     0.045586   
H459     H      0.204100000000     0.873210000000     0.329490000000     0.0412583  
H460     H      0.027020000000     0.960710000000     0.386750000000     0.14123    
H461     H      0.324710000000     0.906130000000     0.126000000000     0.045724   
H462     H      0.415330000000     0.885430000000     0.084150000000     0.0366387  
H463     H      0.415750000000     0.947050000000     0.145930000000     0.0505851  
H464     H      0.277410000000     0.837070000000     0.153020000000     0.0461878  
H465     H      0.460090000000     0.902450000000     0.086900000000     0.0493831  
H466     H      0.322320000000     0.895090000000     0.197940000000     0.0354355  
H467     H      0.322100000000     0.833860000000     0.135800000000     0.0360612  
H468     H      0.291670000000     0.866750000000     0.226620000000     0.0477948  
H469     H      0.445960000000     0.976050000000     0.116930000000     0.00860701 
H470     H      0.364310000000     0.926630000000     0.105440000000     0.0410931  
H471     H      0.445710000000     0.913600000000     0.055080000000     0.0449438  
H472     H      0.373570000000     0.854200000000     0.176710000000     0.0432392  
H473     H      0.402520000000     0.919130000000     0.076200000000     0.037898   
H474     H      0.291410000000     0.804890000000     0.163740000000     0.0488973  
H475     H      0.335060000000     0.861350000000     0.205830000000     0.039901   
H476     H      0.334910000000     0.825410000000     0.169360000000     0.0402264  
H477     H      0.413180000000     0.874690000000     0.156130000000     0.0488719  
H478     H      0.403050000000     0.955230000000     0.112350000000     0.0469963  
H479     H      0.277560000000     0.878080000000     0.194700000000     0.0428237  
H480     H      0.465320000000     0.952720000000     0.149090000000     0.140334   
H481     H      0.072120000000     0.653260000000     0.652010000000     0.0452239  
H482     H      0.161330000000     0.700570000000     0.638250000000     0.0359601  
H483     H      0.159810000000     0.639410000000     0.700330000000     0.0506451  
H484     H      0.031300000000     0.623930000000     0.579850000000     0.0418488  
H485     H      0.205170000000     0.700620000000     0.657000000000     0.0487927  
H486     H      0.075700000000     0.580900000000     0.641590000000     0.0351928  
H487     H      0.075290000000     0.642420000000     0.579850000000     0.0348937  
H488     H      0.048250000000     0.550200000000     0.611350000000     0.0460709  
H489     H      0.187300000000     0.670180000000     0.730940000000     0.00753335 
H490     H      0.108930000000     0.676440000000     0.675240000000     0.0406993  
H491     H      0.188720000000     0.731040000000     0.668830000000     0.0442863  
H492     H      0.127330000000     0.605460000000     0.604440000000     0.0410994  
H493     H      0.146520000000     0.707960000000     0.671140000000     0.036237   
H494     H      0.047770000000     0.611890000000     0.549510000000     0.0462874  
H495     H      0.090150000000     0.573830000000     0.608450000000     0.0369342  
H496     H      0.089890000000     0.609350000000     0.572810000000     0.0367955  
H497     H      0.164140000000     0.628590000000     0.627730000000     0.0482133  
H498     H      0.146070000000     0.672870000000     0.706950000000     0.0456416  
H499     H      0.031610000000     0.580430000000     0.623430000000     0.0418047  
H500     H      0.208530000000     0.637040000000     0.711150000000     0.140904   
H501     H      0.165720000000     0.632710000000     0.899700000000     0.0469855  
H502     H      0.080840000000     0.577860000000     0.892610000000     0.0362381  
H503     H      0.080930000000     0.639180000000     0.954450000000     0.0511444  
H504     H      0.198210000000     0.662260000000     0.823180000000     0.0494382  
H505     H      0.038040000000     0.573320000000     0.912200000000     0.0493176  
H506     H      0.156030000000     0.704330000000     0.889320000000     0.0354376  
H507     H      0.155310000000     0.642810000000     0.827700000000     0.0355387  
H508     H      0.179610000000     0.736430000000     0.856220000000     0.0439209  
H509     H      0.056790000000     0.605950000000     0.986250000000     0.00527847 
H510     H      0.132500000000     0.606710000000     0.925720000000     0.0408375  
H511     H      0.057320000000     0.545470000000     0.925460000000     0.042326   
H512     H      0.103880000000     0.675700000000     0.856630000000     0.0413676  
H513     H      0.097280000000     0.572030000000     0.924930000000     0.0355142  
H514     H      0.178920000000     0.675630000000     0.795400000000     0.0451574  
H515     H      0.139390000000     0.710220000000     0.857120000000     0.0360919  
H516     H      0.139010000000     0.675260000000     0.822060000000     0.0358696  
H517     H      0.070680000000     0.649650000000     0.882590000000     0.0490387  
H518     H      0.096740000000     0.606590000000     0.960190000000     0.0451069  
H519     H      0.198740000000     0.708400000000     0.869330000000     0.0463598  
H520     H      0.033120000000     0.638780000000     0.969380000000     0.141193   
H521     H      0.071540000000     0.881130000000     0.647090000000     0.047451   
H522     H      0.156110000000     0.888220000000     0.702340000000     0.0363446  
H523     H      0.156640000000     0.826740000000     0.640670000000     0.0510266  
H524     H      0.038870000000     0.957880000000     0.618060000000     0.0497424  
H525     H      0.198980000000     0.868710000000     0.706950000000     0.0488659  
H526     H      0.081560000000     0.892120000000     0.575710000000     0.0354634  
H527     H      0.081710000000     0.953370000000     0.637590000000     0.035834   
H528     H      0.057900000000     0.925300000000     0.543760000000     0.0439519  
H529     H      0.180640000000     0.794790000000     0.673860000000     0.00527389 
H530     H      0.104740000000     0.855000000000     0.672990000000     0.0411168  
H531     H      0.179590000000     0.855340000000     0.734660000000     0.0420531  
H532     H      0.133400000000     0.924910000000     0.604850000000     0.0411552  
H533     H      0.139760000000     0.855790000000     0.707880000000     0.0358526  
H534     H      0.058090000000     0.985770000000     0.604800000000     0.0447695  
H535     H      0.098020000000     0.924480000000     0.570110000000     0.0358635  
H536     H      0.098100000000     0.959290000000     0.605260000000     0.035859   
H537     H      0.166580000000     0.898830000000     0.630810000000     0.0487089  
H538     H      0.140600000000     0.820730000000     0.673080000000     0.0451251  
H539     H      0.038750000000     0.911810000000     0.571580000000     0.0469179  
H540     H      0.204500000000     0.812010000000     0.641360000000     0.141194   
H541     H      0.416640000000     0.637780000000     0.640590000000     0.0421099  
H542     H      0.339170000000     0.706510000000     0.647580000000     0.0369029  
H543     H      0.337140000000     0.644200000000     0.708630000000     0.0512316  
H544     H      0.401230000000     0.589330000000     0.549470000000     0.0389794  
H545     H      0.334630000000     0.729890000000     0.691170000000     0.049053   
H546     H      0.397510000000     0.570720000000     0.634460000000     0.0352181  
H547     H      0.396890000000     0.632860000000     0.573210000000     0.0354023  
H548     H      0.432440000000     0.545100000000     0.608780000000     0.0467136  
H549     H      0.301510000000     0.670070000000     0.733710000000     0.0105528  
H550     H      0.393490000000     0.668930000000     0.672150000000     0.0487742  
H551     H      0.304280000000     0.732890000000     0.672470000000     0.0458912  
H552     H      0.342000000000     0.608110000000     0.610230000000     0.0453894  
H553     H      0.309200000000     0.687200000000     0.652800000000     0.0404295  
H554     H      0.431730000000     0.607890000000     0.546810000000     0.0466286  
H555     H      0.426990000000     0.590680000000     0.628680000000     0.039319   
H556     H      0.426630000000     0.627100000000     0.592750000000     0.0393828  
H557     H      0.318850000000     0.639330000000     0.641700000000     0.0428253  
H558     H      0.308030000000     0.651050000000     0.688600000000     0.0504667  
H559     H      0.401720000000     0.547590000000     0.590630000000     0.0386785  
H560     H      0.340650000000     0.675280000000     0.750550000000     0.139381   
H561     H      0.417050000000     0.892110000000     0.889970000000     0.0438258  
H562     H      0.339390000000     0.823440000000     0.883010000000     0.0367071  
H563     H      0.337530000000     0.885880000000     0.822090000000     0.0510281  
H564     H      0.401910000000     0.940440000000     0.981190000000     0.0388525  
H565     H      0.334730000000     0.800180000000     0.839360000000     0.049232   
H566     H      0.397810000000     0.959160000000     0.896160000000     0.0358597  
H567     H      0.397650000000     0.896980000000     0.957370000000     0.0356018  
H568     H      0.432750000000     0.984890000000     0.921730000000     0.0480799  
H569     H      0.301810000000     0.860200000000     0.796970000000     0.00849739 
H570     H      0.393820000000     0.861010000000     0.858420000000     0.0492624  
H571     H      0.304390000000     0.797250000000     0.858090000000     0.0450829  
H572     H      0.342490000000     0.921760000000     0.920570000000     0.0451314  
H573     H      0.309480000000     0.842870000000     0.877860000000     0.0385006  
H574     H      0.432520000000     0.922080000000     0.983620000000     0.0472157  
H575     H      0.427380000000     0.939310000000     0.901850000000     0.0422625  
H576     H      0.427280000000     0.902900000000     0.937710000000     0.0413035  
H577     H      0.319260000000     0.890610000000     0.889100000000     0.0412649  
H578     H      0.308410000000     0.879110000000     0.842120000000     0.0476094  
H579     H      0.402060000000     0.982330000000     0.939950000000     0.0387851  
H580     H      0.340930000000     0.854850000000     0.780130000000     0.139846   
H581     H      0.364400000000     0.604510000000     0.925630000000     0.0417598  
H582     H      0.322370000000     0.696890000000     0.894610000000     0.0368139  
H583     H      0.322470000000     0.635440000000     0.832660000000     0.0504512  
H584     H      0.460400000000     0.628300000000     0.943270000000     0.0464817  
H585     H      0.277630000000     0.693920000000     0.877620000000     0.0489235  
H586     H      0.415950000000     0.583730000000     0.884780000000     0.035656   
H587     H      0.415690000000     0.645560000000     0.946340000000     0.0359769  
H588     H      0.446500000000     0.554960000000     0.913080000000     0.0473384  
H589     H      0.292090000000     0.664420000000     0.803790000000     0.00985573 
H590     H      0.324770000000     0.624930000000     0.905040000000     0.0481953  
H591     H      0.291800000000     0.725880000000     0.866560000000     0.0454195  
H592     H      0.413210000000     0.655640000000     0.874070000000     0.0464016  
H593     H      0.335130000000     0.705100000000     0.860960000000     0.0396387  
H594     H      0.446240000000     0.617520000000     0.975350000000     0.0483713  
H595     H      0.402980000000     0.575580000000     0.918350000000     0.0384811  
H596     H      0.402840000000     0.611940000000     0.954560000000     0.0385876  
H597     H      0.373580000000     0.676050000000     0.853470000000     0.0426643  
H598     H      0.334900000000     0.669200000000     0.824730000000     0.0485099  
H599     H      0.460580000000     0.587070000000     0.902230000000     0.0432153  
H600     H      0.272960000000     0.631850000000     0.826750000000     0.140436   
H601     H      0.108510000000     0.854090000000     0.855080000000     0.0414096  
H602     H      0.074980000000     0.888260000000     0.950130000000     0.0363591  
H603     H      0.075810000000     0.950130000000     0.888740000000     0.0507544  
H604     H      0.204650000000     0.829760000000     0.873380000000     0.041411   
H605     H      0.031070000000     0.906860000000     0.950410000000     0.0493127  
H606     H      0.159960000000     0.891190000000     0.830040000000     0.0351098  
H607     H      0.160700000000     0.829840000000     0.891930000000     0.0350552  
H608     H      0.187390000000     0.860780000000     0.799460000000     0.0456744  
H609     H      0.048430000000     0.980760000000     0.919610000000     0.00753554 
H610     H      0.071750000000     0.877420000000     0.878270000000     0.0487755  
H611     H      0.047690000000     0.918810000000     0.980680000000     0.0441267  
H612     H      0.163820000000     0.902140000000     0.902250000000     0.0449042  
H613     H      0.089720000000     0.921250000000     0.957280000000     0.0363399  
H614     H      0.188200000000     0.799360000000     0.861470000000     0.0456429  
H615     H      0.145590000000     0.857950000000     0.823260000000     0.0370596  
H616     H      0.146040000000     0.822550000000     0.858950000000     0.0369906  
H617     H      0.127070000000     0.925420000000     0.925490000000     0.0405723  
H618     H      0.089780000000     0.956940000000     0.922040000000     0.0456057  
H619     H      0.204100000000     0.873210000000     0.829490000000     0.0412652  
H620     H      0.027020000000     0.960710000000     0.886750000000     0.141221   
H621     H      0.324710000000     0.906130000000     0.626000000000     0.0457568  
H622     H      0.415330000000     0.885430000000     0.584150000000     0.0366932  
H623     H      0.415750000000     0.947050000000     0.645930000000     0.0505847  
H624     H      0.277410000000     0.837070000000     0.653020000000     0.0462109  
H625     H      0.460090000000     0.902450000000     0.586890000000     0.0494105  
H626     H      0.322320000000     0.895090000000     0.697940000000     0.0354298  
H627     H      0.322100000000     0.833860000000     0.635800000000     0.036094   
H628     H      0.291670000000     0.866750000000     0.726620000000     0.0478182  
H629     H      0.445960000000     0.976050000000     0.616930000000     0.00860948 
H630     H      0.364310000000     0.926630000000     0.605440000000     0.0411289  
H631     H      0.445710000000     0.913600000000     0.555080000000     0.0450413  
H632     H      0.373570000000     0.854200000000     0.676700000000     0.0432678  
H633     H      0.402520000000     0.919130000000     0.576200000000     0.03796    
H634     H      0.291410000000     0.804890000000     0.663740000000     0.0489128  
H635     H      0.335060000000     0.861350000000     0.705830000000     0.0398938  
H636     H      0.334910000000     0.825410000000     0.669360000000     0.0402327  
H637     H      0.413180000000     0.874690000000     0.656120000000     0.0488861  
H638     H      0.403050000000     0.955230000000     0.612350000000     0.0470163  
H639     H      0.277560000000     0.878080000000     0.694700000000     0.0428501  
H640     H      0.465320000000     0.952720000000     0.649090000000     0.140329   
H641     H      0.572120000000     0.153260000000     0.152010000000     0.0450961  
H642     H      0.661330000000     0.200580000000     0.138250000000     0.0359187  
H643     H      0.659810000000     0.139410000000     0.200330000000     0.0506007  
H644     H      0.531300000000     0.123930000000     0.079850000000     0.0416343  
H645     H      0.705170000000     0.200620000000     0.157000000000     0.0487735  
H646     H      0.575700000000     0.080900000000     0.141590000000     0.0350896  
H647     H      0.575290000000     0.142420000000     0.079850000000     0.0347823  
H648     H      0.548250000000     0.050200000000     0.111350000000     0.0458522  
H649     H      0.687300000000     0.170180000000     0.230940000000     0.00753142 
H650     H      0.608930000000     0.176440000000     0.175240000000     0.0406494  
H651     H      0.688710000000     0.231040000000     0.168830000000     0.044263   
H652     H      0.627330000000     0.105460000000     0.104440000000     0.0410303  
H653     H      0.646520000000     0.207960000000     0.171140000000     0.0362206  
H654     H      0.547770000000     0.111900000000     0.049510000000     0.0460886  
H655     H      0.590150000000     0.073830000000     0.108450000000     0.0368574  
H656     H      0.589890000000     0.109350000000     0.072810000000     0.0367092  
H657     H      0.664140000000     0.128590000000     0.127730000000     0.0481591  
H658     H      0.646070000000     0.172870000000     0.206950000000     0.0456059  
H659     H      0.531610000000     0.080430000000     0.123430000000     0.0415568  
H660     H      0.708530000000     0.137040000000     0.211160000000     0.140777   
H661     H      0.665720000000     0.132710000000     0.399700000000     0.0469455  
H662     H      0.580840000000     0.077860000000     0.392610000000     0.0361282  
H663     H      0.580930000000     0.139180000000     0.454450000000     0.0510299  
H664     H      0.698210000000     0.162260000000     0.323180000000     0.0494315  
H665     H      0.538040000000     0.073320000000     0.412200000000     0.0491066  
H666     H      0.656030000000     0.204330000000     0.389320000000     0.0354033  
H667     H      0.655310000000     0.142810000000     0.327700000000     0.0354925  
H668     H      0.679610000000     0.236430000000     0.356220000000     0.0439042  
H669     H      0.556790000000     0.105950000000     0.486250000000     0.00509782 
H670     H      0.632500000000     0.106710000000     0.425720000000     0.0407613  
H671     H      0.557320000000     0.045470000000     0.425460000000     0.0421494  
H672     H      0.603880000000     0.175700000000     0.356630000000     0.04131    
H673     H      0.597280000000     0.072030000000     0.424930000000     0.0354276  
H674     H      0.678920000000     0.175630000000     0.295400000000     0.0451466  
H675     H      0.639390000000     0.210220000000     0.357120000000     0.0360648  
H676     H      0.639010000000     0.175260000000     0.322060000000     0.0358244  
H677     H      0.570680000000     0.149650000000     0.382590000000     0.0489055  
H678     H      0.596740000000     0.106590000000     0.460190000000     0.0449998  
H679     H      0.698740000000     0.208400000000     0.369330000000     0.046343   
H680     H      0.533120000000     0.138780000000     0.469380000000     0.140974   
H681     H      0.571530000000     0.381130000000     0.147090000000     0.0472737  
H682     H      0.656110000000     0.388220000000     0.202350000000     0.0362921  
H683     H      0.656640000000     0.326740000000     0.140670000000     0.0510101  
H684     H      0.538870000000     0.457880000000     0.118060000000     0.0495061  
H685     H      0.698980000000     0.368710000000     0.206950000000     0.0488232  
H686     H      0.581560000000     0.392120000000     0.075710000000     0.0353527  
H687     H      0.581710000000     0.453370000000     0.137590000000     0.0357168  
H688     H      0.557900000000     0.425300000000     0.043760000000     0.0437699  
H689     H      0.680640000000     0.294790000000     0.173860000000     0.00522311 
H690     H      0.604740000000     0.355000000000     0.172990000000     0.0410931  
H691     H      0.679590000000     0.355340000000     0.234660000000     0.0420108  
H692     H      0.633390000000     0.424910000000     0.104850000000     0.0410918  
H693     H      0.639760000000     0.355790000000     0.207880000000     0.0358159  
H694     H      0.558090000000     0.485770000000     0.104800000000     0.0445785  
H695     H      0.598020000000     0.424480000000     0.070110000000     0.0357749  
H696     H      0.598100000000     0.459290000000     0.105260000000     0.0357679  
H697     H      0.666580000000     0.398830000000     0.130810000000     0.0486647  
H698     H      0.640610000000     0.320730000000     0.173080000000     0.045128   
H699     H      0.538750000000     0.411810000000     0.071580000000     0.0466954  
H700     H      0.704500000000     0.312010000000     0.141360000000     0.141192   
H701     H      0.916640000000     0.137780000000     0.140590000000     0.0420005  
H702     H      0.839170000000     0.206510000000     0.147570000000     0.0368306  
H703     H      0.837140000000     0.144200000000     0.208630000000     0.0511781  
H704     H      0.901230000000     0.089340000000     0.049470000000     0.0388622  
H705     H      0.834630000000     0.229890000000     0.191170000000     0.0490156  
H706     H      0.897510000000     0.070720000000     0.134460000000     0.0351145  
H707     H      0.896890000000     0.132860000000     0.073210000000     0.0352999  
H708     H      0.932440000000     0.045100000000     0.108780000000     0.0465501  
H709     H      0.801510000000     0.170070000000     0.233710000000     0.0105214  
H710     H      0.893490000000     0.168940000000     0.172150000000     0.0486806  
H711     H      0.804280000000     0.232890000000     0.172470000000     0.0458711  
H712     H      0.842000000000     0.108110000000     0.110230000000     0.0453069  
H713     H      0.809200000000     0.187200000000     0.152800000000     0.0403963  
H714     H      0.931730000000     0.107890000000     0.046810000000     0.046458   
H715     H      0.926990000000     0.090680000000     0.128680000000     0.0391914  
H716     H      0.926630000000     0.127100000000     0.092750000000     0.0392557  
H717     H      0.818860000000     0.139330000000     0.141700000000     0.0428428  
H718     H      0.808030000000     0.151050000000     0.188600000000     0.050442   
H719     H      0.901720000000     0.047600000000     0.090630000000     0.0385804  
H720     H      0.840650000000     0.175280000000     0.250550000000     0.139354   
H721     H      0.917050000000     0.392110000000     0.389970000000     0.0437137  
H722     H      0.839390000000     0.323440000000     0.383010000000     0.03666    
H723     H      0.837530000000     0.385880000000     0.322090000000     0.0509395  
H724     H      0.901910000000     0.440440000000     0.481190000000     0.0386979  
H725     H      0.834730000000     0.300180000000     0.339360000000     0.0491876  
H726     H      0.897810000000     0.459160000000     0.396160000000     0.0357443  
H727     H      0.897650000000     0.396980000000     0.457370000000     0.0355174  
H728     H      0.932750000000     0.484890000000     0.421740000000     0.0479224  
H729     H      0.801810000000     0.360200000000     0.296970000000     0.00850613 
H730     H      0.893820000000     0.361010000000     0.358420000000     0.0491729  
H731     H      0.804390000000     0.297250000000     0.358090000000     0.045055   
H732     H      0.842490000000     0.421760000000     0.420570000000     0.0450472  
H733     H      0.809480000000     0.342870000000     0.377860000000     0.0384792  
H734     H      0.932520000000     0.422080000000     0.483620000000     0.0470135  
H735     H      0.927380000000     0.439310000000     0.401850000000     0.0421217  
H736     H      0.927280000000     0.402900000000     0.437710000000     0.041187   
H737     H      0.819260000000     0.390610000000     0.389100000000     0.0412337  
H738     H      0.808410000000     0.379110000000     0.342120000000     0.0475633  
H739     H      0.902060000000     0.482330000000     0.439950000000     0.0386651  
H740     H      0.840930000000     0.354850000000     0.280130000000     0.139808   
H741     H      0.864400000000     0.104510000000     0.425630000000     0.0416553  
H742     H      0.822370000000     0.196890000000     0.394610000000     0.0367747  
H743     H      0.822470000000     0.135440000000     0.332660000000     0.0504025  
H744     H      0.960400000000     0.128300000000     0.443270000000     0.0462391  
H745     H      0.777630000000     0.193920000000     0.377620000000     0.0489061  
H746     H      0.915950000000     0.083730000000     0.384780000000     0.0355413  
H747     H      0.915690000000     0.145550000000     0.446340000000     0.0358869  
H748     H      0.946500000000     0.054960000000     0.413080000000     0.0471567  
H749     H      0.792090000000     0.164420000000     0.303790000000     0.00987645 
H750     H      0.824770000000     0.124930000000     0.405040000000     0.0481425  
H751     H      0.791810000000     0.225880000000     0.366560000000     0.0453994  
H752     H      0.913210000000     0.155640000000     0.374070000000     0.0462879  
H753     H      0.835120000000     0.205100000000     0.360960000000     0.0396326  
H754     H      0.946240000000     0.117520000000     0.475350000000     0.0481569  
H755     H      0.902980000000     0.075580000000     0.418350000000     0.0383952  
H756     H      0.902840000000     0.111940000000     0.454560000000     0.0385163  
H757     H      0.873580000000     0.176050000000     0.353470000000     0.0426228  
H758     H      0.834900000000     0.169200000000     0.324730000000     0.0484769  
H759     H      0.960580000000     0.087070000000     0.402230000000     0.0430075  
H760     H      0.772960000000     0.131850000000     0.326750000000     0.140298   
H761     H      0.608510000000     0.354090000000     0.355080000000     0.0413547  
H762     H      0.574980000000     0.388260000000     0.450130000000     0.03624    
H763     H      0.575810000000     0.450140000000     0.388740000000     0.0506346  
H764     H      0.704650000000     0.329760000000     0.373370000000     0.0414016  
H765     H      0.531070000000     0.406860000000     0.450410000000     0.0490978  
H766     H      0.659960000000     0.391190000000     0.330040000000     0.0350597  
H767     H      0.660710000000     0.329840000000     0.391930000000     0.0350097  
H768     H      0.687390000000     0.360790000000     0.299460000000     0.0456551  
H769     H      0.548430000000     0.480760000000     0.419610000000     0.00735958 
H770     H      0.571750000000     0.377420000000     0.378270000000     0.0486578  
H771     H      0.547690000000     0.418810000000     0.480680000000     0.0439266  
H772     H      0.663820000000     0.402140000000     0.402260000000     0.044834   
H773     H      0.589720000000     0.421250000000     0.457280000000     0.0362425  
H774     H      0.688200000000     0.299360000000     0.361470000000     0.0456368  
H775     H      0.645590000000     0.357950000000     0.323260000000     0.0370301  
H776     H      0.646040000000     0.322550000000     0.358960000000     0.0369655  
H777     H      0.627070000000     0.425420000000     0.425490000000     0.0404951  
H778     H      0.589780000000     0.456940000000     0.422040000000     0.0455081  
H779     H      0.704090000000     0.373210000000     0.329490000000     0.0412462  
H780     H      0.527020000000     0.460710000000     0.386750000000     0.141017   
H781     H      0.824710000000     0.406130000000     0.126000000000     0.0456909  
H782     H      0.915330000000     0.385430000000     0.084150000000     0.0365842  
H783     H      0.915750000000     0.447050000000     0.145930000000     0.0504698  
H784     H      0.777410000000     0.337070000000     0.153020000000     0.0461874  
H785     H      0.960090000000     0.402450000000     0.086900000000     0.0492107  
H786     H      0.822320000000     0.395090000000     0.197940000000     0.0353897  
H787     H      0.822100000000     0.333860000000     0.135800000000     0.0360378  
H788     H      0.791680000000     0.366750000000     0.226620000000     0.0477711  
H789     H      0.945960000000     0.476050000000     0.116930000000     0.00847226 
H790     H      0.864310000000     0.426630000000     0.105440000000     0.0410557  
H791     H      0.945710000000     0.413600000000     0.055080000000     0.0448559  
H792     H      0.873570000000     0.354200000000     0.176710000000     0.0431949  
H793     H      0.902520000000     0.419130000000     0.076200000000     0.0378778  
H794     H      0.791410000000     0.304890000000     0.163740000000     0.0489001  
H795     H      0.835060000000     0.361350000000     0.205830000000     0.0398787  
H796     H      0.834910000000     0.325410000000     0.169360000000     0.0401974  
H797     H      0.913180000000     0.374690000000     0.156130000000     0.0487748  
H798     H      0.903050000000     0.455230000000     0.112350000000     0.0469218  
H799     H      0.777560000000     0.378080000000     0.194700000000     0.0428025  
H800     H      0.965320000000     0.452720000000     0.149090000000     0.14011    
H801     H      0.572120000000     0.153260000000     0.652010000000     0.0451047  
H802     H      0.661330000000     0.200580000000     0.638250000000     0.0359507  
H803     H      0.659810000000     0.139410000000     0.700330000000     0.0506009  
H804     H      0.531300000000     0.123930000000     0.579850000000     0.0416655  
H805     H      0.705170000000     0.200620000000     0.657000000000     0.0487951  
H806     H      0.575700000000     0.080900000000     0.641590000000     0.0350785  
H807     H      0.575290000000     0.142420000000     0.579850000000     0.0348416  
H808     H      0.548250000000     0.050200000000     0.611350000000     0.0458836  
H809     H      0.687300000000     0.170180000000     0.730940000000     0.00752098 
H810     H      0.608930000000     0.176440000000     0.675240000000     0.0406496  
H811     H      0.688710000000     0.231040000000     0.668830000000     0.0442746  
H812     H      0.627330000000     0.105460000000     0.604440000000     0.0410663  
H813     H      0.646520000000     0.207960000000     0.671140000000     0.0362288  
H814     H      0.547770000000     0.111900000000     0.549510000000     0.0461964  
H815     H      0.590150000000     0.073830000000     0.608450000000     0.0368717  
H816     H      0.589890000000     0.109350000000     0.572810000000     0.0367758  
H817     H      0.664140000000     0.128590000000     0.627730000000     0.0481917  
H818     H      0.646070000000     0.172870000000     0.706950000000     0.0456071  
H819     H      0.531610000000     0.080430000000     0.623430000000     0.0415821  
H820     H      0.708530000000     0.137040000000     0.711150000000     0.140873   
H821     H      0.665720000000     0.132710000000     0.899700000000     0.0469747  
H822     H      0.580840000000     0.077860000000     0.892610000000     0.0361302  
H823     H      0.580930000000     0.139180000000     0.954450000000     0.0511052  
H824     H      0.698210000000     0.162260000000     0.823180000000     0.0494305  
H825     H      0.538040000000     0.073320000000     0.912200000000     0.0490925  
H826     H      0.656030000000     0.204330000000     0.889320000000     0.0354363  
H827     H      0.655310000000     0.142810000000     0.827700000000     0.0354922  
H828     H      0.679610000000     0.236430000000     0.856220000000     0.0439144  
H829     H      0.556790000000     0.105950000000     0.986250000000     0.00523232 
H830     H      0.632500000000     0.106710000000     0.925720000000     0.0408009  
H831     H      0.557320000000     0.045470000000     0.925460000000     0.0421573  
H832     H      0.603880000000     0.175700000000     0.856630000000     0.0413131  
H833     H      0.597280000000     0.072030000000     0.924930000000     0.0354582  
H834     H      0.678920000000     0.175630000000     0.795400000000     0.0451425  
H835     H      0.639390000000     0.210220000000     0.857120000000     0.0360734  
H836     H      0.639010000000     0.175260000000     0.822060000000     0.0358239  
H837     H      0.570680000000     0.149650000000     0.882590000000     0.0489122  
H838     H      0.596740000000     0.106590000000     0.960190000000     0.0450849  
H839     H      0.698740000000     0.208400000000     0.869330000000     0.0463602  
H840     H      0.533120000000     0.138780000000     0.969380000000     0.141069   
H841     H      0.571530000000     0.381130000000     0.647090000000     0.0472826  
H842     H      0.656110000000     0.388220000000     0.702340000000     0.0362959  
H843     H      0.656640000000     0.326740000000     0.640670000000     0.051039   
H844     H      0.538870000000     0.457880000000     0.618060000000     0.0495014  
H845     H      0.698980000000     0.368710000000     0.706950000000     0.0488493  
H846     H      0.581560000000     0.392120000000     0.575710000000     0.0354112  
H847     H      0.581710000000     0.453370000000     0.637590000000     0.0357176  
H848     H      0.557900000000     0.425300000000     0.543760000000     0.0438864  
H849     H      0.680640000000     0.294790000000     0.673860000000     0.00523049 
H850     H      0.604740000000     0.355000000000     0.672990000000     0.0410669  
H851     H      0.679590000000     0.355340000000     0.734660000000     0.0420351  
H852     H      0.633390000000     0.424910000000     0.604850000000     0.0411269  
H853     H      0.639760000000     0.355790000000     0.707880000000     0.0358112  
H854     H      0.558090000000     0.485770000000     0.604800000000     0.04459    
H855     H      0.598020000000     0.424480000000     0.570110000000     0.0358372  
H856     H      0.598100000000     0.459290000000     0.605260000000     0.0357941  
H857     H      0.666580000000     0.398830000000     0.630810000000     0.0486882  
H858     H      0.640610000000     0.320730000000     0.673080000000     0.045136   
H859     H      0.538750000000     0.411810000000     0.571580000000     0.0467379  
H860     H      0.704500000000     0.312010000000     0.641360000000     0.141221   
H861     H      0.916640000000     0.137780000000     0.640590000000     0.04201    
H862     H      0.839170000000     0.206510000000     0.647580000000     0.0368829  
H863     H      0.837140000000     0.144200000000     0.708630000000     0.051187   
H864     H      0.901230000000     0.089340000000     0.549470000000     0.038957   
H865     H      0.834630000000     0.229890000000     0.691170000000     0.049028   
H866     H      0.897510000000     0.070720000000     0.634460000000     0.0351169  
H867     H      0.896890000000     0.132860000000     0.573210000000     0.0353613  
H868     H      0.932440000000     0.045100000000     0.608780000000     0.0465529  
H869     H      0.801510000000     0.170070000000     0.733710000000     0.0105433  
H870     H      0.893490000000     0.168940000000     0.672150000000     0.0486776  
H871     H      0.804280000000     0.232890000000     0.672470000000     0.0458893  
H872     H      0.842000000000     0.108110000000     0.610230000000     0.0453482  
H873     H      0.809200000000     0.187200000000     0.652800000000     0.0404289  
H874     H      0.931730000000     0.107890000000     0.546810000000     0.046554   
H875     H      0.926990000000     0.090680000000     0.628680000000     0.039188   
H876     H      0.926630000000     0.127100000000     0.592750000000     0.0392773  
H877     H      0.818860000000     0.139330000000     0.641700000000     0.0428538  
H878     H      0.808030000000     0.151050000000     0.688600000000     0.0504501  
H879     H      0.901720000000     0.047600000000     0.590630000000     0.0386167  
H880     H      0.840650000000     0.175280000000     0.750550000000     0.139348   
H881     H      0.917050000000     0.392110000000     0.889970000000     0.0437224  
H882     H      0.839390000000     0.323440000000     0.883010000000     0.036687   
H883     H      0.837530000000     0.385880000000     0.822090000000     0.0509793  
H884     H      0.901910000000     0.440440000000     0.981190000000     0.0388228  
H885     H      0.834730000000     0.300180000000     0.839360000000     0.0492071  
H886     H      0.897810000000     0.459160000000     0.896160000000     0.035753   
H887     H      0.897650000000     0.396980000000     0.957370000000     0.0355611  
H888     H      0.932750000000     0.484890000000     0.921730000000     0.0478964  
H889     H      0.801810000000     0.360200000000     0.796970000000     0.00848437 
H890     H      0.893820000000     0.361010000000     0.858420000000     0.049177   
H891     H      0.804390000000     0.297250000000     0.858090000000     0.0450802  
H892     H      0.842490000000     0.421760000000     0.920570000000     0.0450914  
H893     H      0.809480000000     0.342870000000     0.877860000000     0.0384978  
H894     H      0.932520000000     0.422080000000     0.983620000000     0.0471379  
H895     H      0.927380000000     0.439310000000     0.901850000000     0.0421263  
H896     H      0.927280000000     0.402900000000     0.937710000000     0.0411962  
H897     H      0.819260000000     0.390610000000     0.889100000000     0.0412535  
H898     H      0.808410000000     0.379110000000     0.842120000000     0.0475884  
H899     H      0.902060000000     0.482330000000     0.939950000000     0.0386894  
H900     H      0.840930000000     0.354850000000     0.780130000000     0.139811   
H901     H      0.864400000000     0.104510000000     0.925630000000     0.0417255  
H902     H      0.822370000000     0.196890000000     0.894610000000     0.0368134  
H903     H      0.822470000000     0.135440000000     0.832660000000     0.0504102  
H904     H      0.960400000000     0.128300000000     0.943270000000     0.0462842  
H905     H      0.777630000000     0.193920000000     0.877620000000     0.0489263  
H906     H      0.915950000000     0.083730000000     0.884780000000     0.0355438  
H907     H      0.915690000000     0.145550000000     0.946340000000     0.0359443  
H908     H      0.946500000000     0.054960000000     0.913080000000     0.0471482  
H909     H      0.792090000000     0.164420000000     0.803790000000     0.00985405 
H910     H      0.824770000000     0.124930000000     0.905040000000     0.0481726  
H911     H      0.791810000000     0.225880000000     0.866560000000     0.0454121  
H912     H      0.913210000000     0.155640000000     0.874070000000     0.0462971  
H913     H      0.835120000000     0.205100000000     0.860960000000     0.0396415  
H914     H      0.946240000000     0.117520000000     0.975350000000     0.0482703  
H915     H      0.902980000000     0.075580000000     0.918350000000     0.0384231  
H916     H      0.902840000000     0.111940000000     0.954560000000     0.0385825  
H917     H      0.873580000000     0.176050000000     0.853470000000     0.0426232  
H918     H      0.834900000000     0.169200000000     0.824730000000     0.0484831  
H919     H      0.960580000000     0.087070000000     0.902230000000     0.0429937  
H920     H      0.772960000000     0.131850000000     0.826750000000     0.140404   
H921     H      0.608510000000     0.354090000000     0.855080000000     0.0413604  
H922     H      0.574980000000     0.388260000000     0.950130000000     0.0363039  
H923     H      0.575810000000     0.450140000000     0.888740000000     0.0506336  
H924     H      0.704650000000     0.329760000000     0.873380000000     0.0414087  
H925     H      0.531070000000     0.406860000000     0.950410000000     0.0491389  
H926     H      0.659960000000     0.391190000000     0.830040000000     0.0350588  
H927     H      0.660710000000     0.329840000000     0.891930000000     0.0350449  
H928     H      0.687390000000     0.360790000000     0.799460000000     0.0456562  
H929     H      0.548430000000     0.480760000000     0.919610000000     0.00737397 
H930     H      0.571750000000     0.377420000000     0.878270000000     0.0486645  
H931     H      0.547690000000     0.418810000000     0.980680000000     0.0440452  
H932     H      0.663820000000     0.402140000000     0.902250000000     0.044878   
H933     H      0.589720000000     0.421250000000     0.957280000000     0.0363132  
H934     H      0.688200000000     0.299360000000     0.861470000000     0.0456476  
H935     H      0.645590000000     0.357950000000     0.823260000000     0.037026   
H936     H      0.646040000000     0.322550000000     0.858950000000     0.0369703  
H937     H      0.627070000000     0.425420000000     0.925490000000     0.0405349  
H938     H      0.589780000000     0.456940000000     0.922040000000     0.045528   
H939     H      0.704090000000     0.373210000000     0.829490000000     0.0412532  
H940     H      0.527020000000     0.460710000000     0.886750000000     0.141009   
H941     H      0.824710000000     0.406130000000     0.626000000000     0.0457236  
H942     H      0.915330000000     0.385430000000     0.584150000000     0.0366385  
H943     H      0.915750000000     0.447050000000     0.645930000000     0.0504694  
H944     H      0.777410000000     0.337070000000     0.653020000000     0.0462105  
H945     H      0.960090000000     0.402450000000     0.586890000000     0.0492379  
H946     H      0.822320000000     0.395090000000     0.697940000000     0.035384   
H947     H      0.822100000000     0.333860000000     0.635800000000     0.0360705  
H948     H      0.791680000000     0.366750000000     0.726620000000     0.0477945  
H949     H      0.945960000000     0.476050000000     0.616930000000     0.00847458 
H950     H      0.864310000000     0.426630000000     0.605440000000     0.0410914  
H951     H      0.945710000000     0.413600000000     0.555080000000     0.0449532  
H952     H      0.873570000000     0.354200000000     0.676700000000     0.0432235  
H953     H      0.902520000000     0.419130000000     0.576200000000     0.0379397  
H954     H      0.791410000000     0.304890000000     0.663740000000     0.0489156  
H955     H      0.835060000000     0.361350000000     0.705830000000     0.0398715  
H956     H      0.834910000000     0.325410000000     0.669360000000     0.0402036  
H957     H      0.913180000000     0.374690000000     0.656120000000     0.048789   
H958     H      0.903050000000     0.455230000000     0.612350000000     0.0469418  
H959     H      0.777560000000     0.378080000000     0.694700000000     0.0428288  
H960     H      0.965320000000     0.452720000000     0.649090000000     0.140105   
H961     H      0.572120000000     0.653260000000     0.152010000000     0.0451072  
H962     H      0.661330000000     0.700570000000     0.138250000000     0.0359308  
H963     H      0.659810000000     0.639410000000     0.200330000000     0.0506307  
H964     H      0.531300000000     0.623930000000     0.079850000000     0.0416367  
H965     H      0.705170000000     0.700620000000     0.157000000000     0.048776   
H966     H      0.575700000000     0.580900000000     0.141590000000     0.0351481  
H967     H      0.575290000000     0.642420000000     0.079850000000     0.0347812  
H968     H      0.548250000000     0.550200000000     0.111350000000     0.0459614  
H969     H      0.687300000000     0.670180000000     0.230940000000     0.00753905 
H970     H      0.608930000000     0.676440000000     0.175240000000     0.0406501  
H971     H      0.688710000000     0.731040000000     0.168830000000     0.0442603  
H972     H      0.627330000000     0.605460000000     0.104440000000     0.0410644  
H973     H      0.646520000000     0.707960000000     0.171140000000     0.0362225  
H974     H      0.547770000000     0.611890000000     0.049510000000     0.0461098  
H975     H      0.590150000000     0.573830000000     0.108450000000     0.0369208  
H976     H      0.589890000000     0.609350000000     0.072810000000     0.0367308  
H977     H      0.664140000000     0.628590000000     0.127730000000     0.0481884  
H978     H      0.646070000000     0.672870000000     0.206950000000     0.0456132  
H979     H      0.531610000000     0.580430000000     0.123430000000     0.0415945  
H980     H      0.708530000000     0.637040000000     0.211160000000     0.140809   
H981     H      0.665720000000     0.632710000000     0.399700000000     0.0469641  
H982     H      0.580840000000     0.577860000000     0.392610000000     0.0361865  
H983     H      0.580930000000     0.639180000000     0.454450000000     0.0510301  
H984     H      0.698210000000     0.662260000000     0.323180000000     0.0494448  
H985     H      0.538040000000     0.573320000000     0.412200000000     0.0491489  
H986     H      0.656030000000     0.704330000000     0.389320000000     0.0353898  
H987     H      0.655310000000     0.642810000000     0.327700000000     0.0355224  
H988     H      0.679610000000     0.736430000000     0.356220000000     0.0439055  
H989     H      0.556790000000     0.605950000000     0.486250000000     0.00510919 
H990     H      0.632500000000     0.606710000000     0.425720000000     0.0408002  
H991     H      0.557320000000     0.545470000000     0.425460000000     0.042264   
H992     H      0.603880000000     0.675700000000     0.356630000000     0.0413088  
H993     H      0.597280000000     0.572030000000     0.424930000000     0.0354882  
H994     H      0.678920000000     0.675630000000     0.295400000000     0.0451539  
H995     H      0.639390000000     0.710220000000     0.357120000000     0.0360506  
H996     H      0.639010000000     0.675260000000     0.322060000000     0.0358363  
H997     H      0.570680000000     0.649650000000     0.382590000000     0.0489175  
H998     H      0.596740000000     0.606590000000     0.460190000000     0.0450244  
H999     H      0.698740000000     0.708400000000     0.369330000000     0.046349   
H1000    H      0.533120000000     0.638780000000     0.469380000000     0.140971   
H1001    H      0.571530000000     0.881130000000     0.147090000000     0.0472809  
H1002    H      0.656110000000     0.888220000000     0.202350000000     0.0363253  
H1003    H      0.656640000000     0.826740000000     0.140670000000     0.0510093  
H1004    H      0.538870000000     0.957880000000     0.118060000000     0.0495508  
H1005    H      0.698980000000     0.868710000000     0.206950000000     0.0488443  
H1006    H      0.581560000000     0.892120000000     0.075710000000     0.0353538  
H1007    H      0.581710000000     0.953370000000     0.137590000000     0.0357795  
H1008    H      0.557900000000     0.925300000000     0.043760000000     0.0437847  
H1009    H      0.680640000000     0.794790000000     0.173860000000     0.00522098 
H1010    H      0.604740000000     0.855000000000     0.172990000000     0.0410957  
H1011    H      0.679590000000     0.855340000000     0.234660000000     0.0420213  
H1012    H      0.633390000000     0.924910000000     0.104850000000     0.0411315  
H1013    H      0.639760000000     0.855790000000     0.207880000000     0.0358235  
H1014    H      0.558090000000     0.985770000000     0.104800000000     0.0447027  
H1015    H      0.598020000000     0.924480000000     0.070110000000     0.0358045  
H1016    H      0.598100000000     0.959290000000     0.105260000000     0.0358361  
H1017    H      0.666580000000     0.898830000000     0.130810000000     0.0486946  
H1018    H      0.640610000000     0.820730000000     0.173080000000     0.0451254  
H1019    H      0.538750000000     0.911810000000     0.071580000000     0.04669    
H1020    H      0.704500000000     0.812010000000     0.141360000000     0.141192   
H1021    H      0.916640000000     0.637780000000     0.140590000000     0.0420022  
H1022    H      0.839170000000     0.706510000000     0.147570000000     0.036829   
H1023    H      0.837140000000     0.644200000000     0.208630000000     0.0512051  
H1024    H      0.901230000000     0.589330000000     0.049470000000     0.038901   
H1025    H      0.834630000000     0.729890000000     0.191170000000     0.0490133  
H1026    H      0.897510000000     0.570720000000     0.134460000000     0.035181   
H1027    H      0.896890000000     0.632860000000     0.073210000000     0.0353046  
H1028    H      0.932440000000     0.545100000000     0.108780000000     0.0466426  
H1029    H      0.801510000000     0.670070000000     0.233710000000     0.0105316  
H1030    H      0.893490000000     0.668930000000     0.172150000000     0.0487076  
H1031    H      0.804280000000     0.732890000000     0.172470000000     0.0458696  
H1032    H      0.842000000000     0.608110000000     0.110230000000     0.0453448  
H1033    H      0.809200000000     0.687200000000     0.152800000000     0.0404001  
H1034    H      0.931730000000     0.607890000000     0.046810000000     0.0464613  
H1035    H      0.926990000000     0.590680000000     0.128680000000     0.0392164  
H1036    H      0.926630000000     0.627100000000     0.092750000000     0.039254   
H1037    H      0.818860000000     0.639330000000     0.141700000000     0.0428636  
H1038    H      0.808030000000     0.651050000000     0.188600000000     0.0504621  
H1039    H      0.901720000000     0.547590000000     0.090630000000     0.0386602  
H1040    H      0.840650000000     0.675280000000     0.250550000000     0.139366   
H1041    H      0.917050000000     0.892110000000     0.389970000000     0.0437219  
H1042    H      0.839390000000     0.823440000000     0.383010000000     0.0366582  
H1043    H      0.837530000000     0.885880000000     0.322090000000     0.0509703  
H1044    H      0.901910000000     0.940440000000     0.481190000000     0.0387443  
H1045    H      0.834730000000     0.800180000000     0.339360000000     0.049185   
H1046    H      0.897810000000     0.959160000000     0.396160000000     0.035814   
H1047    H      0.897650000000     0.896980000000     0.457370000000     0.0355213  
H1048    H      0.932750000000     0.984890000000     0.421740000000     0.0480318  
H1049    H      0.801810000000     0.860200000000     0.296970000000     0.00851972 
H1050    H      0.893820000000     0.861010000000     0.358420000000     0.049177   
H1051    H      0.804390000000     0.797250000000     0.358090000000     0.0450538  
H1052    H      0.842490000000     0.921760000000     0.420570000000     0.045092   
H1053    H      0.809480000000     0.842870000000     0.377860000000     0.0384845  
H1054    H      0.932520000000     0.922080000000     0.483620000000     0.0470188  
H1055    H      0.927380000000     0.939310000000     0.401850000000     0.0421463  
H1056    H      0.927280000000     0.902900000000     0.437710000000     0.0411846  
H1057    H      0.819260000000     0.890610000000     0.389100000000     0.0412549  
H1058    H      0.808410000000     0.879110000000     0.342120000000     0.0475873  
H1059    H      0.902060000000     0.982330000000     0.439950000000     0.0387775  
H1060    H      0.840930000000     0.854850000000     0.280130000000     0.139822   
H1061    H      0.864400000000     0.604510000000     0.425630000000     0.0416931  
H1062    H      0.822370000000     0.696890000000     0.394610000000     0.0367753  
H1063    H      0.822470000000     0.635440000000     0.332660000000     0.0504342  
H1064    H      0.960400000000     0.628300000000     0.443270000000     0.0462399  
H1065    H      0.777630000000     0.693920000000     0.377620000000     0.0489094  
H1066    H      0.915950000000     0.583730000000     0.384780000000     0.0355978  
H1067    H      0.915690000000     0.645560000000     0.446340000000     0.0358626  
H1068    H      0.946500000000     0.554960000000     0.413080000000     0.0472557  
H1069    H      0.792090000000     0.664420000000     0.303790000000     0.00987741 
H1070    H      0.824770000000     0.624930000000     0.405040000000     0.0481737  
H1071    H      0.791810000000     0.725880000000     0.366560000000     0.0453954  
H1072    H      0.913210000000     0.655640000000     0.374070000000     0.0462943  
H1073    H      0.835120000000     0.705100000000     0.360960000000     0.0396303  
H1074    H      0.946240000000     0.617520000000     0.475350000000     0.0481632  
H1075    H      0.902980000000     0.575580000000     0.418350000000     0.0384591  
H1076    H      0.902840000000     0.611940000000     0.454560000000     0.0385272  
H1077    H      0.873580000000     0.676050000000     0.353470000000     0.0426247  
H1078    H      0.834900000000     0.669200000000     0.324730000000     0.0484843  
H1079    H      0.960580000000     0.587070000000     0.402230000000     0.0430387  
H1080    H      0.772960000000     0.631850000000     0.326750000000     0.140333   
H1081    H      0.608510000000     0.854090000000     0.355080000000     0.041356   
H1082    H      0.574980000000     0.888260000000     0.450130000000     0.036241   
H1083    H      0.575810000000     0.950130000000     0.388740000000     0.0507127  
H1084    H      0.704650000000     0.829760000000     0.373370000000     0.0414079  
H1085    H      0.531070000000     0.906860000000     0.450410000000     0.0490933  
H1086    H      0.659960000000     0.891190000000     0.330040000000     0.0350938  
H1087    H      0.660710000000     0.829840000000     0.391930000000     0.0350101  
H1088    H      0.687390000000     0.860780000000     0.299460000000     0.0456842  
H1089    H      0.548430000000     0.980760000000     0.419610000000     0.0074679  
H1090    H      0.571750000000     0.877420000000     0.378270000000     0.0486647  
H1091    H      0.547690000000     0.918810000000     0.480680000000     0.0439335  
H1092    H      0.663820000000     0.902140000000     0.402260000000     0.0448678  
H1093    H      0.589720000000     0.921250000000     0.457280000000     0.0362702  
H1094    H      0.688200000000     0.799360000000     0.361470000000     0.0456351  
H1095    H      0.645590000000     0.857950000000     0.323260000000     0.0370353  
H1096    H      0.646040000000     0.822550000000     0.358960000000     0.0369626  
H1097    H      0.627070000000     0.925420000000     0.425490000000     0.0405339  
H1098    H      0.589780000000     0.956940000000     0.422040000000     0.0455854  
H1099    H      0.704090000000     0.873210000000     0.329490000000     0.0412763  
H1100    H      0.527020000000     0.960710000000     0.386750000000     0.141091   
H1101    H      0.824710000000     0.906130000000     0.126000000000     0.0457326  
H1102    H      0.915330000000     0.885430000000     0.084150000000     0.0365841  
H1103    H      0.915750000000     0.947050000000     0.145930000000     0.0505291  
H1104    H      0.777410000000     0.837070000000     0.153020000000     0.0461914  
H1105    H      0.960090000000     0.902450000000     0.086900000000     0.0492065  
H1106    H      0.822320000000     0.895090000000     0.197940000000     0.0354271  
H1107    H      0.822100000000     0.833860000000     0.135800000000     0.0360512  
H1108    H      0.791680000000     0.866750000000     0.226620000000     0.0477888  
H1109    H      0.945960000000     0.976050000000     0.116930000000     0.00857403 
H1110    H      0.864310000000     0.926630000000     0.105440000000     0.0410975  
H1111    H      0.945710000000     0.913600000000     0.055080000000     0.0448589  
H1112    H      0.873570000000     0.854200000000     0.176710000000     0.0432001  
H1113    H      0.902520000000     0.919130000000     0.076200000000     0.0379039  
H1114    H      0.791410000000     0.804890000000     0.163740000000     0.0488952  
H1115    H      0.835060000000     0.861350000000     0.205830000000     0.0398813  
H1116    H      0.834910000000     0.825410000000     0.169360000000     0.0402058  
H1117    H      0.913180000000     0.874690000000     0.156130000000     0.0487789  
H1118    H      0.903050000000     0.955230000000     0.112350000000     0.0469951  
H1119    H      0.777560000000     0.878080000000     0.194700000000     0.0428315  
H1120    H      0.965320000000     0.952720000000     0.149090000000     0.140174   
H1121    H      0.572120000000     0.653260000000     0.652010000000     0.0451158  
H1122    H      0.661330000000     0.700570000000     0.638250000000     0.0359629  
H1123    H      0.659810000000     0.639410000000     0.700330000000     0.0506309  
H1124    H      0.531300000000     0.623930000000     0.579850000000     0.0416679  
H1125    H      0.705170000000     0.700620000000     0.657000000000     0.0487977  
H1126    H      0.575700000000     0.580900000000     0.641590000000     0.0351372  
H1127    H      0.575290000000     0.642420000000     0.579850000000     0.0348406  
H1128    H      0.548250000000     0.550200000000     0.611350000000     0.045993   
H1129    H      0.687300000000     0.670180000000     0.730940000000     0.00752862 
H1130    H      0.608930000000     0.676440000000     0.675240000000     0.0406503  
H1131    H      0.688710000000     0.731040000000     0.668830000000     0.0442719  
H1132    H      0.627330000000     0.605460000000     0.604440000000     0.0411005  
H1133    H      0.646520000000     0.707960000000     0.671140000000     0.0362307  
H1134    H      0.547770000000     0.611890000000     0.549510000000     0.0462177  
H1135    H      0.590150000000     0.573830000000     0.608450000000     0.0369352  
H1136    H      0.589890000000     0.609350000000     0.572810000000     0.0367975  
H1137    H      0.664140000000     0.628590000000     0.627730000000     0.0482211  
H1138    H      0.646070000000     0.672870000000     0.706950000000     0.0456143  
H1139    H      0.531610000000     0.580430000000     0.623430000000     0.0416199  
H1140    H      0.708530000000     0.637040000000     0.711150000000     0.140905   
H1141    H      0.665720000000     0.632710000000     0.899700000000     0.0469934  
H1142    H      0.580840000000     0.577860000000     0.892610000000     0.0361885  
H1143    H      0.580930000000     0.639180000000     0.954450000000     0.0511054  
H1144    H      0.698210000000     0.662260000000     0.823180000000     0.0494437  
H1145    H      0.538040000000     0.573320000000     0.912200000000     0.0491349  
H1146    H      0.656030000000     0.704330000000     0.889320000000     0.0354228  
H1147    H      0.655310000000     0.642810000000     0.827700000000     0.0355222  
H1148    H      0.679610000000     0.736430000000     0.856220000000     0.0439157  
H1149    H      0.556790000000     0.605950000000     0.986250000000     0.00524384 
H1150    H      0.632500000000     0.606710000000     0.925720000000     0.0408398  
H1151    H      0.557320000000     0.545470000000     0.925460000000     0.0422719  
H1152    H      0.603880000000     0.675700000000     0.856630000000     0.0413118  
H1153    H      0.597280000000     0.572030000000     0.924930000000     0.0355188  
H1154    H      0.678920000000     0.675630000000     0.795400000000     0.0451498  
H1155    H      0.639390000000     0.710220000000     0.857120000000     0.0360592  
H1156    H      0.639010000000     0.675260000000     0.822060000000     0.0358358  
H1157    H      0.570680000000     0.649650000000     0.882590000000     0.0489243  
H1158    H      0.596740000000     0.606590000000     0.960190000000     0.0451096  
H1159    H      0.698740000000     0.708400000000     0.869330000000     0.0463662  
H1160    H      0.533120000000     0.638780000000     0.969380000000     0.141066   
H1161    H      0.571530000000     0.881130000000     0.647090000000     0.0472898  
H1162    H      0.656110000000     0.888220000000     0.702340000000     0.0363292  
H1163    H      0.656640000000     0.826740000000     0.640670000000     0.0510382  
H1164    H      0.538870000000     0.957880000000     0.618060000000     0.0495462  
H1165    H      0.698980000000     0.868710000000     0.706950000000     0.0488703  
H1166    H      0.581560000000     0.892120000000     0.575710000000     0.0354123  
H1167    H      0.581710000000     0.953370000000     0.637590000000     0.0357804  
H1168    H      0.557900000000     0.925300000000     0.543760000000     0.0439013  
H1169    H      0.680640000000     0.794790000000     0.673860000000     0.00522836 
H1170    H      0.604740000000     0.855000000000     0.672990000000     0.0410695  
H1171    H      0.679590000000     0.855340000000     0.734660000000     0.0420457  
H1172    H      0.633390000000     0.924910000000     0.604850000000     0.0411666  
H1173    H      0.639760000000     0.855790000000     0.707880000000     0.0358188  
H1174    H      0.558090000000     0.985770000000     0.604800000000     0.0447144  
H1175    H      0.598020000000     0.924480000000     0.570110000000     0.0358669  
H1176    H      0.598100000000     0.959290000000     0.605260000000     0.0358623  
H1177    H      0.666580000000     0.898830000000     0.630810000000     0.0487182  
H1178    H      0.640610000000     0.820730000000     0.673080000000     0.0451334  
H1179    H      0.538750000000     0.911810000000     0.571580000000     0.0467325  
H1180    H      0.704500000000     0.812010000000     0.641360000000     0.141221   
H1181    H      0.916640000000     0.637780000000     0.640590000000     0.0420117  
H1182    H      0.839170000000     0.706510000000     0.647580000000     0.0368813  
H1183    H      0.837140000000     0.644200000000     0.708630000000     0.051214   
H1184    H      0.901230000000     0.589330000000     0.549470000000     0.0389961  
H1185    H      0.834630000000     0.729890000000     0.691170000000     0.0490256  
H1186    H      0.897510000000     0.570720000000     0.634460000000     0.0351835  
H1187    H      0.896890000000     0.632860000000     0.573210000000     0.0353661  
H1188    H      0.932440000000     0.545100000000     0.608780000000     0.0466455  
H1189    H      0.801510000000     0.670070000000     0.733710000000     0.0105536  
H1190    H      0.893490000000     0.668930000000     0.672150000000     0.0487046  
H1191    H      0.804280000000     0.732890000000     0.672470000000     0.0458878  
H1192    H      0.842000000000     0.608110000000     0.610230000000     0.0453863  
H1193    H      0.809200000000     0.687200000000     0.652800000000     0.0404328  
H1194    H      0.931730000000     0.607890000000     0.546810000000     0.0465574  
H1195    H      0.926990000000     0.590680000000     0.628680000000     0.0392131  
H1196    H      0.926630000000     0.627100000000     0.592750000000     0.0392757  
H1197    H      0.818860000000     0.639330000000     0.641700000000     0.0428747  
H1198    H      0.808030000000     0.651050000000     0.688600000000     0.0504702  
H1199    H      0.901720000000     0.547590000000     0.590630000000     0.0386967  
H1200    H      0.840650000000     0.675280000000     0.750550000000     0.139359   
H1201    H      0.917050000000     0.892110000000     0.889970000000     0.0437306  
H1202    H      0.839390000000     0.823440000000     0.883010000000     0.0366853  
H1203    H      0.837530000000     0.885880000000     0.822090000000     0.0510101  
H1204    H      0.901910000000     0.940440000000     0.981190000000     0.0388691  
H1205    H      0.834730000000     0.800180000000     0.839360000000     0.0492045  
H1206    H      0.897810000000     0.959160000000     0.896160000000     0.0358227  
H1207    H      0.897650000000     0.896980000000     0.957370000000     0.035565   
H1208    H      0.932750000000     0.984890000000     0.921730000000     0.0480058  
H1209    H      0.801810000000     0.860200000000     0.796970000000     0.00849795 
H1210    H      0.893820000000     0.861010000000     0.858420000000     0.0491812  
H1211    H      0.804390000000     0.797250000000     0.858090000000     0.045079   
H1212    H      0.842490000000     0.921760000000     0.920570000000     0.0451361  
H1213    H      0.809480000000     0.842870000000     0.877860000000     0.0385031  
H1214    H      0.932520000000     0.922080000000     0.983620000000     0.0471432  
H1215    H      0.927380000000     0.939310000000     0.901850000000     0.0421509  
H1216    H      0.927280000000     0.902900000000     0.937710000000     0.0411938  
H1217    H      0.819260000000     0.890610000000     0.889100000000     0.0412746  
H1218    H      0.808410000000     0.879110000000     0.842120000000     0.0476124  
H1219    H      0.902060000000     0.982330000000     0.939950000000     0.0388017  
H1220    H      0.840930000000     0.854850000000     0.780130000000     0.139824   
H1221    H      0.864400000000     0.604510000000     0.925630000000     0.0417634  
H1222    H      0.822370000000     0.696890000000     0.894610000000     0.036814   
H1223    H      0.822470000000     0.635440000000     0.832660000000     0.050442   
H1224    H      0.960400000000     0.628300000000     0.943270000000     0.0462851  
H1225    H      0.777630000000     0.693920000000     0.877620000000     0.0489296  
H1226    H      0.915950000000     0.583730000000     0.884780000000     0.0356004  
H1227    H      0.915690000000     0.645560000000     0.946340000000     0.0359201  
H1228    H      0.946500000000     0.554960000000     0.913080000000     0.0472472  
H1229    H      0.792090000000     0.664420000000     0.803790000000     0.009855   
H1230    H      0.824770000000     0.624930000000     0.905040000000     0.0482038  
H1231    H      0.791810000000     0.725880000000     0.866560000000     0.0454082  
H1232    H      0.913210000000     0.655640000000     0.874070000000     0.0463035  
H1233    H      0.835120000000     0.705100000000     0.860960000000     0.0396392  
H1234    H      0.946240000000     0.617520000000     0.975350000000     0.0482767  
H1235    H      0.902980000000     0.575580000000     0.918350000000     0.0384871  
H1236    H      0.902840000000     0.611940000000     0.954560000000     0.0385934  
H1237    H      0.873580000000     0.676050000000     0.853470000000     0.042625   
H1238    H      0.834900000000     0.669200000000     0.824730000000     0.0484905  
H1239    H      0.960580000000     0.587070000000     0.902230000000     0.043025   
H1240    H      0.772960000000     0.631850000000     0.826750000000     0.140439   
H1241    H      0.608510000000     0.854090000000     0.855080000000     0.0413617  
H1242    H      0.574980000000     0.888260000000     0.950130000000     0.0363049  
H1243    H      0.575810000000     0.950130000000     0.888740000000     0.0507116  
H1244    H      0.704650000000     0.829760000000     0.873380000000     0.041415   
H1245    H      0.531070000000     0.906860000000     0.950410000000     0.0491344  
H1246    H      0.659960000000     0.891190000000     0.830040000000     0.0350929  
H1247    H      0.660710000000     0.829840000000     0.891930000000     0.0350453  
H1248    H      0.687390000000     0.860780000000     0.799460000000     0.0456853  
H1249    H      0.548430000000     0.980760000000     0.919610000000     0.00748225 
H1250    H      0.571750000000     0.877420000000     0.878270000000     0.0486714  
H1251    H      0.547690000000     0.918810000000     0.980680000000     0.044052   
H1252    H      0.663820000000     0.902140000000     0.902250000000     0.0449118  
H1253    H      0.589720000000     0.921250000000     0.957280000000     0.0363408  
H1254    H      0.688200000000     0.799360000000     0.861470000000     0.0456459  
H1255    H      0.645590000000     0.857950000000     0.823260000000     0.0370311  
H1256    H      0.646040000000     0.822550000000     0.858950000000     0.0369674  
H1257    H      0.627070000000     0.925420000000     0.925490000000     0.0405736  
H1258    H      0.589780000000     0.956940000000     0.922040000000     0.0456053  
H1259    H      0.704090000000     0.873210000000     0.829490000000     0.0412833  
H1260    H      0.527020000000     0.960710000000     0.886750000000     0.141083   
H1261    H      0.824710000000     0.906130000000     0.626000000000     0.0457654  
H1262    H      0.915330000000     0.885430000000     0.584150000000     0.0366385  
H1263    H      0.915750000000     0.947050000000     0.645930000000     0.0505287  
H1264    H      0.777410000000     0.837070000000     0.653020000000     0.0462144  
H1265    H      0.960090000000     0.902450000000     0.586890000000     0.0492336  
H1266    H      0.822320000000     0.895090000000     0.697940000000     0.0354215  
H1267    H      0.822100000000     0.833860000000     0.635800000000     0.036084   
H1268    H      0.791680000000     0.866750000000     0.726620000000     0.0478122  
H1269    H      0.945960000000     0.976050000000     0.616930000000     0.00857647 
H1270    H      0.864310000000     0.926630000000     0.605440000000     0.0411333  
H1271    H      0.945710000000     0.913600000000     0.555080000000     0.0449563  
H1272    H      0.873570000000     0.854200000000     0.676700000000     0.0432287  
H1273    H      0.902520000000     0.919130000000     0.576200000000     0.0379659  
H1274    H      0.791410000000     0.804890000000     0.663740000000     0.0489106  
H1275    H      0.835060000000     0.861350000000     0.705830000000     0.039874   
H1276    H      0.834910000000     0.825410000000     0.669360000000     0.040212   
H1277    H      0.913180000000     0.874690000000     0.656120000000     0.0487931  
H1278    H      0.903050000000     0.955230000000     0.612350000000     0.0470152  
H1279    H      0.777560000000     0.878080000000     0.694700000000     0.0428579  
H1280    H      0.965320000000     0.952720000000     0.649090000000     0.140169   
N1       N      0.195360000000     0.199590000000     0.199260000000    -0.178401   
N2       N      0.161570000000     0.167100000000     0.166450000000    -0.100871   
N3       N      0.074680000000     0.114500000000     0.113540000000    -0.113498   
N4       N      0.040930000000     0.081620000000     0.081070000000    -0.16344    
N5       N      0.047780000000     0.077400000000     0.454300000000    -0.178489   
N6       N      0.078890000000     0.111420000000     0.420640000000    -0.100549   
N7       N      0.157500000000     0.170680000000     0.361360000000    -0.112491   
N8       N      0.188560000000     0.204390000000     0.327340000000    -0.162413   
N9       N      0.189310000000     0.326590000000     0.202700000000    -0.178687   
N10      N      0.158350000000     0.360390000000     0.168640000000    -0.100614   
N11      N      0.079770000000     0.419860000000     0.109520000000    -0.112369   
N12      N      0.048590000000     0.453870000000     0.075950000000    -0.162393   
N13      N      0.303830000000     0.205530000000     0.207490000000    -0.178922   
N14      N      0.341820000000     0.175170000000     0.178020000000    -0.100704   
N15      N      0.393670000000     0.102070000000     0.104150000000    -0.113828   
N16      N      0.431780000000     0.072670000000     0.073920000000    -0.165355   
N17      N      0.303990000000     0.324690000000     0.323140000000    -0.179705   
N18      N      0.342120000000     0.354840000000     0.352630000000    -0.10072    
N19      N      0.394170000000     0.427800000000     0.426490000000    -0.113696   
N20      N      0.432230000000     0.457380000000     0.456630000000    -0.164671   
N21      N      0.286340000000     0.195000000000     0.335090000000    -0.177942   
N22      N      0.322330000000     0.163460000000     0.366330000000    -0.100808   
N23      N      0.415650000000     0.117260000000     0.412940000000    -0.113336   
N24      N      0.451380000000     0.085860000000     0.444620000000    -0.162288   
N25      N      0.040750000000     0.449170000000     0.449210000000    -0.178345   
N26      N      0.074400000000     0.416340000000     0.416560000000    -0.100757   
N27      N      0.161180000000     0.363360000000     0.363810000000    -0.113512   
N28      N      0.194980000000     0.330800000000     0.331090000000    -0.163722   
N29      N      0.451310000000     0.444980000000     0.086020000000    -0.178395   
N30      N      0.415570000000     0.413540000000     0.117710000000    -0.100862   
N31      N      0.322310000000     0.367130000000     0.164240000000    -0.113283   
N32      N      0.286340000000     0.335570000000     0.195460000000    -0.161923   
N33      N      0.195360000000     0.199590000000     0.699260000000    -0.178404   
N34      N      0.161570000000     0.167100000000     0.666450000000    -0.100857   
N35      N      0.074680000000     0.114500000000     0.613540000000    -0.113499   
N36      N      0.040930000000     0.081620000000     0.581070000000    -0.163476   
N37      N      0.047780000000     0.077400000000     0.954300000000    -0.178523   
N38      N      0.078890000000     0.111420000000     0.920640000000    -0.10054    
N39      N      0.157500000000     0.170680000000     0.861360000000    -0.112486   
N40      N      0.188560000000     0.204390000000     0.827340000000    -0.16245    
N41      N      0.189310000000     0.326590000000     0.702700000000    -0.178672   
N42      N      0.158350000000     0.360390000000     0.668640000000    -0.10061    
N43      N      0.079770000000     0.419860000000     0.609520000000    -0.112364   
N44      N      0.048590000000     0.453870000000     0.575950000000    -0.162377   
N45      N      0.303830000000     0.205530000000     0.707500000000    -0.178982   
N46      N      0.341820000000     0.175170000000     0.678030000000    -0.100668   
N47      N      0.393670000000     0.102070000000     0.604150000000    -0.113821   
N48      N      0.431780000000     0.072670000000     0.573920000000    -0.165341   
N49      N      0.303990000000     0.324690000000     0.823130000000    -0.179757   
N50      N      0.342120000000     0.354840000000     0.852630000000    -0.100712   
N51      N      0.394170000000     0.427800000000     0.926490000000    -0.113691   
N52      N      0.432230000000     0.457380000000     0.956620000000    -0.164599   
N53      N      0.286340000000     0.195000000000     0.835090000000    -0.177995   
N54      N      0.322330000000     0.163460000000     0.866330000000    -0.100798   
N55      N      0.415650000000     0.117260000000     0.912940000000    -0.113335   
N56      N      0.451380000000     0.085860000000     0.944610000000    -0.162177   
N57      N      0.040750000000     0.449170000000     0.949210000000    -0.17835    
N58      N      0.074400000000     0.416340000000     0.916560000000    -0.100756   
N59      N      0.161180000000     0.363360000000     0.863810000000    -0.113513   
N60      N      0.194980000000     0.330800000000     0.831090000000    -0.163684   
N61      N      0.451310000000     0.444980000000     0.586020000000    -0.178383   
N62      N      0.415570000000     0.413540000000     0.617710000000    -0.10086    
N63      N      0.322310000000     0.367130000000     0.664240000000    -0.113284   
N64      N      0.286340000000     0.335570000000     0.695460000000    -0.16191    
N65      N      0.195360000000     0.699590000000     0.199260000000    -0.178402   
N66      N      0.161570000000     0.667100000000     0.166450000000    -0.100866   
N67      N      0.074680000000     0.614500000000     0.113540000000    -0.113488   
N68      N      0.040930000000     0.581620000000     0.081070000000    -0.163426   
N69      N      0.047780000000     0.577400000000     0.454300000000    -0.178474   
N70      N      0.078890000000     0.611420000000     0.420640000000    -0.100549   
N71      N      0.157500000000     0.670690000000     0.361360000000    -0.11248    
N72      N      0.188560000000     0.704390000000     0.327340000000    -0.162412   
N73      N      0.189310000000     0.826590000000     0.202700000000    -0.178686   
N74      N      0.158350000000     0.860390000000     0.168640000000    -0.10061    
N75      N      0.079770000000     0.919860000000     0.109520000000    -0.112366   
N76      N      0.048590000000     0.953870000000     0.075950000000    -0.162366   
N77      N      0.303830000000     0.705530000000     0.207490000000    -0.178922   
N78      N      0.341820000000     0.675170000000     0.178020000000    -0.100705   
N79      N      0.393670000000     0.602070000000     0.104150000000    -0.113816   
N80      N      0.431780000000     0.572670000000     0.073920000000    -0.165345   
N81      N      0.303990000000     0.824690000000     0.323140000000    -0.179705   
N82      N      0.342120000000     0.854840000000     0.352630000000    -0.100718   
N83      N      0.394170000000     0.927800000000     0.426490000000    -0.113686   
N84      N      0.432230000000     0.957380000000     0.456630000000    -0.164641   
N85      N      0.286340000000     0.695000000000     0.335090000000    -0.177972   
N86      N      0.322330000000     0.663460000000     0.366330000000    -0.100803   
N87      N      0.415650000000     0.617260000000     0.412940000000    -0.113339   
N88      N      0.451380000000     0.585860000000     0.444620000000    -0.162275   
N89      N      0.040750000000     0.949170000000     0.449210000000    -0.178324   
N90      N      0.074400000000     0.916340000000     0.416560000000    -0.100749   
N91      N      0.161180000000     0.863360000000     0.363810000000    -0.113507   
N92      N      0.194980000000     0.830800000000     0.331090000000    -0.163721   
N93      N      0.451310000000     0.944980000000     0.086020000000    -0.178375   
N94      N      0.415570000000     0.913540000000     0.117710000000    -0.100858   
N95      N      0.322310000000     0.867140000000     0.164240000000    -0.113282   
N96      N      0.286340000000     0.835570000000     0.195460000000    -0.161924   
N97      N      0.195360000000     0.699590000000     0.699260000000    -0.178405   
N98      N      0.161570000000     0.667100000000     0.666450000000    -0.100852   
N99      N      0.074680000000     0.614500000000     0.613540000000    -0.11349    
N100     N      0.040930000000     0.581620000000     0.581070000000    -0.163461   
N101     N      0.047780000000     0.577400000000     0.954300000000    -0.178508   
N102     N      0.078890000000     0.611420000000     0.920640000000    -0.10054    
N103     N      0.157500000000     0.670690000000     0.861360000000    -0.112475   
N104     N      0.188560000000     0.704390000000     0.827340000000    -0.162449   
N105     N      0.189310000000     0.826590000000     0.702700000000    -0.178672   
N106     N      0.158350000000     0.860390000000     0.668640000000    -0.100605   
N107     N      0.079770000000     0.919860000000     0.609520000000    -0.112361   
N108     N      0.048590000000     0.953870000000     0.575950000000    -0.162351   
N109     N      0.303830000000     0.705530000000     0.707500000000    -0.178982   
N110     N      0.341820000000     0.675170000000     0.678030000000    -0.100669   
N111     N      0.393670000000     0.602070000000     0.604150000000    -0.113808   
N112     N      0.431780000000     0.572670000000     0.573920000000    -0.165331   
N113     N      0.303990000000     0.824690000000     0.823130000000    -0.179757   
N114     N      0.342120000000     0.854840000000     0.852630000000    -0.10071    
N115     N      0.394170000000     0.927800000000     0.926490000000    -0.113681   
N116     N      0.432230000000     0.957380000000     0.956620000000    -0.16457    
N117     N      0.286340000000     0.695000000000     0.835090000000    -0.178024   
N118     N      0.322330000000     0.663460000000     0.866330000000    -0.100792   
N119     N      0.415650000000     0.617260000000     0.912940000000    -0.113338   
N120     N      0.451380000000     0.585860000000     0.944610000000    -0.162165   
N121     N      0.040750000000     0.949170000000     0.949210000000    -0.178328   
N122     N      0.074400000000     0.916340000000     0.916560000000    -0.100749   
N123     N      0.161180000000     0.863360000000     0.863810000000    -0.113508   
N124     N      0.194980000000     0.830800000000     0.831090000000    -0.163683   
N125     N      0.451310000000     0.944980000000     0.586020000000    -0.178363   
N126     N      0.415570000000     0.913540000000     0.617710000000    -0.100855   
N127     N      0.322310000000     0.867140000000     0.664240000000    -0.113282   
N128     N      0.286340000000     0.835570000000     0.695460000000    -0.16191    
N129     N      0.695360000000     0.199590000000     0.199260000000    -0.178402   
N130     N      0.661570000000     0.167100000000     0.166450000000    -0.100864   
N131     N      0.574680000000     0.114500000000     0.113540000000    -0.113522   
N132     N      0.540930000000     0.081620000000     0.081070000000    -0.16351    
N133     N      0.547780000000     0.077400000000     0.454300000000    -0.178556   
N134     N      0.578890000000     0.111420000000     0.420640000000    -0.100572   
N135     N      0.657500000000     0.170680000000     0.361360000000    -0.112493   
N136     N      0.688560000000     0.204390000000     0.327340000000    -0.162412   
N137     N      0.689310000000     0.326590000000     0.202700000000    -0.17871    
N138     N      0.658350000000     0.360390000000     0.168640000000    -0.100602   
N139     N      0.579770000000     0.419860000000     0.109520000000    -0.112393   
N140     N      0.548590000000     0.453870000000     0.075950000000    -0.16246    
N141     N      0.803830000000     0.205530000000     0.207490000000    -0.178923   
N142     N      0.841820000000     0.175170000000     0.178020000000    -0.100719   
N143     N      0.893670000000     0.102070000000     0.104150000000    -0.113829   
N144     N      0.931780000000     0.072670000000     0.073920000000    -0.165355   
N145     N      0.803990000000     0.324690000000     0.323140000000    -0.179706   
N146     N      0.842120000000     0.354840000000     0.352630000000    -0.100737   
N147     N      0.894170000000     0.427800000000     0.426490000000    -0.1137     
N148     N      0.932230000000     0.457380000000     0.456630000000    -0.164677   
N149     N      0.786340000000     0.195000000000     0.335090000000    -0.177943   
N150     N      0.822330000000     0.163460000000     0.366330000000    -0.100803   
N151     N      0.915650000000     0.117260000000     0.412940000000    -0.113359   
N152     N      0.951380000000     0.085860000000     0.444620000000    -0.162325   
N153     N      0.540750000000     0.449170000000     0.449210000000    -0.178414   
N154     N      0.574400000000     0.416340000000     0.416560000000    -0.100778   
N155     N      0.661180000000     0.363360000000     0.363810000000    -0.113515   
N156     N      0.694980000000     0.330800000000     0.331090000000    -0.163676   
N157     N      0.951310000000     0.444980000000     0.086020000000    -0.178401   
N158     N      0.915570000000     0.413540000000     0.117710000000    -0.10089    
N159     N      0.822310000000     0.367130000000     0.164240000000    -0.113283   
N160     N      0.786340000000     0.335570000000     0.195460000000    -0.161922   
N161     N      0.695360000000     0.199590000000     0.699260000000    -0.178405   
N162     N      0.661570000000     0.167100000000     0.666450000000    -0.10085    
N163     N      0.574680000000     0.114500000000     0.613540000000    -0.113523   
N164     N      0.540930000000     0.081620000000     0.581070000000    -0.163546   
N165     N      0.547780000000     0.077400000000     0.954300000000    -0.178591   
N166     N      0.578890000000     0.111420000000     0.920640000000    -0.100562   
N167     N      0.657500000000     0.170680000000     0.861360000000    -0.112488   
N168     N      0.688560000000     0.204390000000     0.827340000000    -0.16245    
N169     N      0.689310000000     0.326590000000     0.702700000000    -0.178695   
N170     N      0.658350000000     0.360390000000     0.668640000000    -0.100598   
N171     N      0.579770000000     0.419860000000     0.609520000000    -0.112388   
N172     N      0.548590000000     0.453870000000     0.575950000000    -0.162445   
N173     N      0.803830000000     0.205530000000     0.707500000000    -0.178983   
N174     N      0.841820000000     0.175170000000     0.678030000000    -0.100683   
N175     N      0.893670000000     0.102070000000     0.604150000000    -0.113822   
N176     N      0.931780000000     0.072670000000     0.573920000000    -0.165341   
N177     N      0.803990000000     0.324690000000     0.823130000000    -0.179758   
N178     N      0.842120000000     0.354840000000     0.852630000000    -0.100729   
N179     N      0.894170000000     0.427800000000     0.926490000000    -0.113695   
N180     N      0.932230000000     0.457380000000     0.956620000000    -0.164606   
N181     N      0.786340000000     0.195000000000     0.835090000000    -0.177995   
N182     N      0.822330000000     0.163460000000     0.866330000000    -0.100792   
N183     N      0.915650000000     0.117260000000     0.912940000000    -0.113358   
N184     N      0.951380000000     0.085860000000     0.944610000000    -0.162214   
N185     N      0.540750000000     0.449170000000     0.949210000000    -0.178418   
N186     N      0.574400000000     0.416340000000     0.916560000000    -0.100777   
N187     N      0.661180000000     0.363360000000     0.863810000000    -0.113517   
N188     N      0.694980000000     0.330800000000     0.831090000000    -0.163638   
N189     N      0.951310000000     0.444980000000     0.586020000000    -0.178389   
N190     N      0.915570000000     0.413540000000     0.617710000000    -0.100887   
N191     N      0.822310000000     0.367130000000     0.664240000000    -0.113284   
N192     N      0.786340000000     0.335570000000     0.695460000000    -0.161909   
N193     N      0.695360000000     0.699590000000     0.199260000000    -0.178404   
N194     N      0.661570000000     0.667100000000     0.166450000000    -0.100858   
N195     N      0.574680000000     0.614500000000     0.113540000000    -0.113512   
N196     N      0.540930000000     0.581620000000     0.081070000000    -0.163496   
N197     N      0.547780000000     0.577400000000     0.454300000000    -0.178541   
N198     N      0.578890000000     0.611420000000     0.420640000000    -0.100572   
N199     N      0.657500000000     0.670690000000     0.361360000000    -0.112482   
N200     N      0.688560000000     0.704390000000     0.327340000000    -0.162411   
N201     N      0.689310000000     0.826590000000     0.202700000000    -0.17871    
N202     N      0.658350000000     0.860390000000     0.168640000000    -0.100598   
N203     N      0.579770000000     0.919860000000     0.109520000000    -0.11239    
N204     N      0.548590000000     0.953870000000     0.075950000000    -0.162433   
N205     N      0.803830000000     0.705530000000     0.207490000000    -0.178923   
N206     N      0.841820000000     0.675170000000     0.178020000000    -0.10072    
N207     N      0.893670000000     0.602070000000     0.104150000000    -0.113817   
N208     N      0.931780000000     0.572670000000     0.073920000000    -0.165345   
N209     N      0.803990000000     0.824690000000     0.323140000000    -0.179706   
N210     N      0.842120000000     0.854840000000     0.352630000000    -0.100735   
N211     N      0.894170000000     0.927800000000     0.426490000000    -0.11369    
N212     N      0.932230000000     0.957380000000     0.456630000000    -0.164648   
N213     N      0.786340000000     0.695000000000     0.335090000000    -0.177972   
N214     N      0.822330000000     0.663460000000     0.366330000000    -0.100797   
N215     N      0.915650000000     0.617260000000     0.412940000000    -0.113362   
N216     N      0.951380000000     0.585860000000     0.444620000000    -0.162312   
N217     N      0.540750000000     0.949170000000     0.449210000000    -0.178392   
N218     N      0.574400000000     0.916340000000     0.416560000000    -0.10077    
N219     N      0.661180000000     0.863360000000     0.363810000000    -0.11351    
N220     N      0.694980000000     0.830800000000     0.331090000000    -0.163675   
N221     N      0.951310000000     0.944980000000     0.086020000000    -0.178381   
N222     N      0.915570000000     0.913540000000     0.117710000000    -0.100886   
N223     N      0.822310000000     0.867140000000     0.164240000000    -0.113282   
N224     N      0.786340000000     0.835570000000     0.195460000000    -0.161923   
N225     N      0.695360000000     0.699590000000     0.699260000000    -0.178406   
N226     N      0.661570000000     0.667100000000     0.666450000000    -0.100844   
N227     N      0.574680000000     0.614500000000     0.613540000000    -0.113513   
N228     N      0.540930000000     0.581620000000     0.581070000000    -0.163532   
N229     N      0.547780000000     0.577400000000     0.954300000000    -0.178575   
N230     N      0.578890000000     0.611420000000     0.920640000000    -0.100563   
N231     N      0.657500000000     0.670690000000     0.861360000000    -0.112477   
N232     N      0.688560000000     0.704390000000     0.827340000000    -0.162449   
N233     N      0.689310000000     0.826590000000     0.702700000000    -0.178695   
N234     N      0.658350000000     0.860390000000     0.668640000000    -0.100594   
N235     N      0.579770000000     0.919860000000     0.609520000000    -0.112385   
N236     N      0.548590000000     0.953870000000     0.575950000000    -0.162418   
N237     N      0.803830000000     0.705530000000     0.707500000000    -0.178983   
N238     N      0.841820000000     0.675170000000     0.678030000000    -0.100684   
N239     N      0.893670000000     0.602070000000     0.604150000000    -0.11381    
N240     N      0.931780000000     0.572670000000     0.573920000000    -0.165331   
N241     N      0.803990000000     0.824690000000     0.823130000000    -0.179758   
N242     N      0.842120000000     0.854840000000     0.852630000000    -0.100727   
N243     N      0.894170000000     0.927800000000     0.926490000000    -0.113685   
N244     N      0.932230000000     0.957380000000     0.956620000000    -0.164577   
N245     N      0.786340000000     0.695000000000     0.835090000000    -0.178025   
N246     N      0.822330000000     0.663460000000     0.866330000000    -0.100787   
N247     N      0.915650000000     0.617260000000     0.912940000000    -0.113361   
N248     N      0.951380000000     0.585860000000     0.944610000000    -0.162202   
N249     N      0.540750000000     0.949170000000     0.949210000000    -0.178397   
N250     N      0.574400000000     0.916340000000     0.916560000000    -0.10077    
N251     N      0.661180000000     0.863360000000     0.863810000000    -0.113512   
N252     N      0.694980000000     0.830800000000     0.831090000000    -0.163637   
N253     N      0.951310000000     0.944980000000     0.586020000000    -0.178369   
N254     N      0.915570000000     0.913540000000     0.617710000000    -0.100883   
N255     N      0.822310000000     0.867140000000     0.664240000000    -0.113283   
N256     N      0.786340000000     0.835570000000     0.695460000000    -0.16191    
O1       O      0.021570000000     0.491280000000     0.071250000000    -0.367447   
O2       O      0.021260000000     0.039610000000     0.459280000000    -0.369593   
O3       O      0.016790000000     0.456120000000     0.488530000000    -0.371047   
O4       O      0.016690000000     0.074620000000     0.041970000000    -0.369723   
O5       O      0.017050000000     0.488640000000     0.456330000000    -0.368043   
O6       O      0.017250000000     0.042110000000     0.074180000000    -0.37037    
O7       O      0.020740000000     0.072040000000     0.491610000000    -0.364021   
O8       O      0.021180000000     0.458860000000     0.038910000000    -0.368022   
O9       O      0.462540000000     0.038400000000     0.071360000000    -0.368217   
O10      O      0.462630000000     0.491990000000     0.459280000000    -0.366337   
O11      O      0.471240000000     0.453750000000     0.044650000000    -0.361817   
O12      O      0.471230000000     0.077030000000     0.485980000000    -0.357694   
O13      O      0.471640000000     0.044720000000     0.453590000000    -0.35905    
O14      O      0.471860000000     0.485990000000     0.077120000000    -0.358727   
O15      O      0.461990000000     0.070800000000     0.039090000000    -0.369031   
O16      O      0.462370000000     0.459530000000     0.491510000000    -0.367964   
O17      O      0.981290000000     0.515310000000     0.015350000000    -0.592023   
O18      O      0.265900000000     0.294430000000     0.203910000000    -0.357016   
O19      O      0.265900000000     0.236170000000     0.326660000000    -0.361369   
O20      O      0.273480000000     0.321750000000     0.288660000000    -0.366033   
O21      O      0.273370000000     0.208660000000     0.241990000000    -0.363865   
O22      O      0.274250000000     0.289400000000     0.320980000000    -0.369173   
O23      O      0.274250000000     0.240970000000     0.209640000000    -0.368496   
O24      O      0.265240000000     0.203750000000     0.294380000000    -0.356621   
O25      O      0.265410000000     0.326780000000     0.236260000000    -0.357331   
O26      O      0.219790000000     0.238630000000     0.206090000000    -0.371773   
O27      O      0.219590000000     0.291880000000     0.324410000000    -0.37117    
O28      O      0.215390000000     0.321390000000     0.240760000000    -0.371434   
O29      O      0.215160000000     0.209310000000     0.289660000000    -0.368576   
O30      O      0.215850000000     0.241540000000     0.322180000000    -0.368265   
O31      O      0.216230000000     0.289190000000     0.208210000000    -0.36483    
O32      O      0.219030000000     0.206580000000     0.238750000000    -0.369133   
O33      O      0.218880000000     0.323910000000     0.291740000000    -0.37218    
O34      O      0.255240000000     0.265280000000     0.265320000000    -0.590741   
O35      O      0.208920000000     0.153480000000     0.199030000000    -0.271426   
O36      O      0.032860000000     0.123020000000     0.456370000000    -0.268743   
O37      O      0.204610000000     0.324890000000     0.157210000000    -0.269348   
O38      O      0.337520000000     0.189760000000     0.236510000000    -0.272489   
O39      O      0.337730000000     0.340360000000     0.294130000000    -0.272171   
O40      O      0.273100000000     0.148890000000     0.338020000000    -0.273049   
O41      O      0.026810000000     0.448660000000     0.403240000000    -0.270907   
O42      O      0.465000000000     0.441620000000     0.131940000000    -0.272917   
O43      O      0.021570000000     0.491280000000     0.571250000000    -0.367437   
O44      O      0.021260000000     0.039610000000     0.959290000000    -0.369717   
O45      O      0.016790000000     0.456120000000     0.988530000000    -0.370714   
O46      O      0.016690000000     0.074620000000     0.541970000000    -0.369568   
O47      O      0.017050000000     0.488640000000     0.956330000000    -0.368041   
O48      O      0.017250000000     0.042110000000     0.574170000000    -0.370513   
O49      O      0.020740000000     0.072040000000     0.991610000000    -0.363728   
O50      O      0.021180000000     0.458860000000     0.538910000000    -0.367972   
O51      O      0.462540000000     0.038400000000     0.571360000000    -0.368221   
O52      O      0.462630000000     0.491990000000     0.959280000000    -0.366307   
O53      O      0.471240000000     0.453750000000     0.544650000000    -0.361785   
O54      O      0.471230000000     0.077030000000     0.985990000000    -0.35725    
O55      O      0.471640000000     0.044720000000     0.953590000000    -0.35897    
O56      O      0.471860000000     0.485990000000     0.577120000000    -0.358738   
O57      O      0.461990000000     0.070800000000     0.539090000000    -0.369001   
O58      O      0.462370000000     0.459530000000     0.991510000000    -0.367613   
O59      O      0.981290000000     0.515310000000     0.515350000000    -0.591882   
O60      O      0.265900000000     0.294430000000     0.703910000000    -0.357013   
O61      O      0.265900000000     0.236170000000     0.826660000000    -0.361428   
O62      O      0.273480000000     0.321750000000     0.788660000000    -0.366055   
O63      O      0.273370000000     0.208660000000     0.741990000000    -0.363884   
O64      O      0.274250000000     0.289400000000     0.820980000000    -0.369192   
O65      O      0.274250000000     0.240970000000     0.709640000000    -0.368514   
O66      O      0.265240000000     0.203750000000     0.794390000000    -0.356733   
O67      O      0.265410000000     0.326780000000     0.736260000000    -0.357334   
O68      O      0.219790000000     0.238630000000     0.706090000000    -0.371769   
O69      O      0.219590000000     0.291880000000     0.824410000000    -0.371103   
O70      O      0.215390000000     0.321390000000     0.740760000000    -0.371425   
O71      O      0.215160000000     0.209310000000     0.789660000000    -0.368452   
O72      O      0.215850000000     0.241540000000     0.822180000000    -0.368292   
O73      O      0.216230000000     0.289190000000     0.708210000000    -0.364827   
O74      O      0.219030000000     0.206580000000     0.738750000000    -0.369132   
O75      O      0.218880000000     0.323910000000     0.791730000000    -0.37207    
O76      O      0.255240000000     0.265280000000     0.765320000000    -0.590743   
O77      O      0.208920000000     0.153480000000     0.699030000000    -0.27153    
O78      O      0.032860000000     0.123020000000     0.956370000000    -0.268779   
O79      O      0.204610000000     0.324890000000     0.657210000000    -0.269338   
O80      O      0.337520000000     0.189760000000     0.736510000000    -0.272465   
O81      O      0.337730000000     0.340360000000     0.794130000000    -0.272189   
O82      O      0.273100000000     0.148890000000     0.838010000000    -0.273187   
O83      O      0.026810000000     0.448660000000     0.903240000000    -0.270876   
O84      O      0.465000000000     0.441620000000     0.631940000000    -0.272915   
O85      O      0.021570000000     0.991280000000     0.071250000000    -0.367115   
O86      O      0.021260000000     0.539610000000     0.459280000000    -0.369543   
O87      O      0.016790000000     0.956120000000     0.488530000000    -0.371042   
O88      O      0.016690000000     0.574620000000     0.041970000000    -0.369717   
O89      O      0.017050000000     0.988640000000     0.456330000000    -0.367711   
O90      O      0.017250000000     0.542110000000     0.074180000000    -0.370319   
O91      O      0.020740000000     0.572040000000     0.491610000000    -0.364012   
O92      O      0.021180000000     0.958860000000     0.038910000000    -0.36801    
O93      O      0.462540000000     0.538400000000     0.071360000000    -0.368179   
O94      O      0.462630000000     0.991990000000     0.459280000000    -0.365996   
O95      O      0.471240000000     0.953750000000     0.044650000000    -0.361813   
O96      O      0.471230000000     0.577030000000     0.485980000000    -0.357691   
O97      O      0.471640000000     0.544720000000     0.453590000000    -0.359014   
O98      O      0.471860000000     0.985990000000     0.077120000000    -0.358407   
O99      O      0.461990000000     0.570800000000     0.039090000000    -0.369025   
O100     O      0.462370000000     0.959530000000     0.491510000000    -0.367944   
O101     O      0.981290000000     0.015310000000     0.015350000000    -0.592162   
O102     O      0.265900000000     0.794430000000     0.203910000000    -0.357017   
O103     O      0.265900000000     0.736170000000     0.326660000000    -0.361394   
O104     O      0.273480000000     0.821750000000     0.288660000000    -0.366029   
O105     O      0.273370000000     0.708660000000     0.241990000000    -0.363865   
O106     O      0.274250000000     0.789400000000     0.320980000000    -0.369173   
O107     O      0.274250000000     0.740970000000     0.209640000000    -0.368498   
O108     O      0.265240000000     0.703760000000     0.294380000000    -0.356747   
O109     O      0.265410000000     0.826780000000     0.236260000000    -0.357327   
O110     O      0.219790000000     0.738630000000     0.206090000000    -0.371776   
O111     O      0.219590000000     0.791880000000     0.324410000000    -0.371172   
O112     O      0.215390000000     0.821390000000     0.240760000000    -0.371432   
O113     O      0.215160000000     0.709310000000     0.289660000000    -0.368579   
O114     O      0.215850000000     0.741540000000     0.322180000000    -0.368267   
O115     O      0.216230000000     0.789190000000     0.208210000000    -0.364831   
O116     O      0.219030000000     0.706580000000     0.238750000000    -0.369142   
O117     O      0.218880000000     0.823910000000     0.291740000000    -0.372178   
O118     O      0.255240000000     0.765280000000     0.265320000000    -0.590746   
O119     O      0.208920000000     0.653480000000     0.199030000000    -0.271415   
O120     O      0.032860000000     0.623020000000     0.456370000000    -0.268745   
O121     O      0.204610000000     0.824890000000     0.157210000000    -0.269342   
O122     O      0.337520000000     0.689760000000     0.236510000000    -0.272491   
O123     O      0.337730000000     0.840360000000     0.294130000000    -0.272173   
O124     O      0.273100000000     0.648890000000     0.338020000000    -0.273042   
O125     O      0.026810000000     0.948660000000     0.403240000000    -0.270897   
O126     O      0.465000000000     0.941620000000     0.131940000000    -0.272909   
O127     O      0.021570000000     0.991280000000     0.571250000000    -0.367105   
O128     O      0.021260000000     0.539610000000     0.959290000000    -0.369667   
O129     O      0.016790000000     0.956120000000     0.988530000000    -0.370709   
O130     O      0.016690000000     0.574620000000     0.541970000000    -0.369563   
O131     O      0.017050000000     0.988640000000     0.956330000000    -0.367709   
O132     O      0.017250000000     0.542110000000     0.574170000000    -0.370462   
O133     O      0.020740000000     0.572040000000     0.991610000000    -0.363719   
O134     O      0.021180000000     0.958860000000     0.538910000000    -0.367959   
O135     O      0.462540000000     0.538400000000     0.571360000000    -0.368183   
O136     O      0.462630000000     0.991990000000     0.959280000000    -0.365966   
O137     O      0.471240000000     0.953750000000     0.544650000000    -0.361781   
O138     O      0.471230000000     0.577030000000     0.985990000000    -0.357246   
O139     O      0.471640000000     0.544720000000     0.953590000000    -0.358934   
O140     O      0.471860000000     0.985990000000     0.577120000000    -0.358417   
O141     O      0.461990000000     0.570800000000     0.539090000000    -0.368995   
O142     O      0.462370000000     0.959530000000     0.991510000000    -0.367593   
O143     O      0.981290000000     0.015310000000     0.515350000000    -0.592022   
O144     O      0.265900000000     0.794430000000     0.703910000000    -0.357014   
O145     O      0.265900000000     0.736170000000     0.826660000000    -0.361453   
O146     O      0.273480000000     0.821750000000     0.788660000000    -0.366051   
O147     O      0.273370000000     0.708660000000     0.741990000000    -0.363885   
O148     O      0.274250000000     0.789400000000     0.820980000000    -0.369192   
O149     O      0.274250000000     0.740970000000     0.709640000000    -0.368516   
O150     O      0.265240000000     0.703760000000     0.794390000000    -0.356859   
O151     O      0.265410000000     0.826780000000     0.736260000000    -0.357329   
O152     O      0.219790000000     0.738630000000     0.706090000000    -0.371772   
O153     O      0.219590000000     0.791880000000     0.824410000000    -0.371106   
O154     O      0.215390000000     0.821390000000     0.740760000000    -0.371422   
O155     O      0.215160000000     0.709310000000     0.789660000000    -0.368456   
O156     O      0.215850000000     0.741540000000     0.822180000000    -0.368294   
O157     O      0.216230000000     0.789190000000     0.708210000000    -0.364828   
O158     O      0.219030000000     0.706580000000     0.738750000000    -0.369141   
O159     O      0.218880000000     0.823910000000     0.791730000000    -0.372068   
O160     O      0.255240000000     0.765280000000     0.765320000000    -0.590748   
O161     O      0.208920000000     0.653480000000     0.699030000000    -0.271518   
O162     O      0.032860000000     0.623020000000     0.956370000000    -0.268781   
O163     O      0.204610000000     0.824890000000     0.657210000000    -0.269332   
O164     O      0.337520000000     0.689760000000     0.736510000000    -0.272467   
O165     O      0.337730000000     0.840360000000     0.794130000000    -0.272191   
O166     O      0.273100000000     0.648890000000     0.838010000000    -0.27318    
O167     O      0.026810000000     0.948660000000     0.903240000000    -0.270866   
O168     O      0.465000000000     0.941620000000     0.631940000000    -0.272907   
O169     O      0.521570000000     0.491280000000     0.071250000000    -0.367979   
O170     O      0.521260000000     0.039610000000     0.459280000000    -0.370192   
O171     O      0.516790000000     0.456120000000     0.488530000000    -0.371652   
O172     O      0.516690000000     0.074620000000     0.041970000000    -0.370316   
O173     O      0.517050000000     0.488640000000     0.456330000000    -0.368645   
O174     O      0.517250000000     0.042110000000     0.074180000000    -0.370916   
O175     O      0.520740000000     0.072040000000     0.491610000000    -0.364614   
O176     O      0.521180000000     0.458860000000     0.038910000000    -0.368612   
O177     O      0.962540000000     0.038400000000     0.071360000000    -0.368115   
O178     O      0.962630000000     0.491990000000     0.459280000000    -0.366326   
O179     O      0.971240000000     0.453750000000     0.044650000000    -0.361855   
O180     O      0.971230000000     0.077030000000     0.485980000000    -0.357751   
O181     O      0.971640000000     0.044720000000     0.453590000000    -0.359105   
O182     O      0.971860000000     0.485990000000     0.077120000000    -0.358713   
O183     O      0.961990000000     0.070800000000     0.039090000000    -0.369003   
O184     O      0.962370000000     0.459530000000     0.491510000000    -0.36795    
O185     O      0.481290000000     0.515310000000     0.015350000000    -0.592428   
O186     O      0.765900000000     0.294430000000     0.203910000000    -0.357017   
O187     O      0.765900000000     0.236170000000     0.326660000000    -0.361366   
O188     O      0.773480000000     0.321750000000     0.288660000000    -0.366035   
O189     O      0.773370000000     0.208660000000     0.241990000000    -0.363863   
O190     O      0.774250000000     0.289400000000     0.320980000000    -0.369176   
O191     O      0.774250000000     0.240970000000     0.209640000000    -0.368495   
O192     O      0.765240000000     0.203750000000     0.294380000000    -0.356619   
O193     O      0.765410000000     0.326780000000     0.236260000000    -0.357328   
O194     O      0.719790000000     0.238630000000     0.206090000000    -0.37177    
O195     O      0.719590000000     0.291880000000     0.324410000000    -0.371236   
O196     O      0.715390000000     0.321390000000     0.240760000000    -0.371431   
O197     O      0.715160000000     0.209310000000     0.289660000000    -0.368575   
O198     O      0.715850000000     0.241540000000     0.322180000000    -0.368259   
O199     O      0.716230000000     0.289190000000     0.208210000000    -0.364833   
O200     O      0.719030000000     0.206580000000     0.238750000000    -0.369132   
O201     O      0.718880000000     0.323910000000     0.291740000000    -0.372242   
O202     O      0.755240000000     0.265280000000     0.265320000000    -0.590745   
O203     O      0.708920000000     0.153480000000     0.199030000000    -0.271418   
O204     O      0.532860000000     0.123020000000     0.456370000000    -0.268951   
O205     O      0.704600000000     0.324890000000     0.157210000000    -0.26943    
O206     O      0.837520000000     0.189760000000     0.236510000000    -0.272518   
O207     O      0.837730000000     0.340360000000     0.294130000000    -0.272199   
O208     O      0.773100000000     0.148890000000     0.338020000000    -0.273041   
O209     O      0.526810000000     0.448660000000     0.403240000000    -0.271099   
O210     O      0.965010000000     0.441620000000     0.131940000000    -0.273036   
O211     O      0.521570000000     0.491280000000     0.571250000000    -0.36797    
O212     O      0.521260000000     0.039610000000     0.959290000000    -0.370315   
O213     O      0.516790000000     0.456120000000     0.988530000000    -0.371318   
O214     O      0.516690000000     0.074620000000     0.541970000000    -0.370162   
O215     O      0.517050000000     0.488640000000     0.956330000000    -0.368642   
O216     O      0.517250000000     0.042110000000     0.574170000000    -0.37106    
O217     O      0.520740000000     0.072040000000     0.991610000000    -0.36432    
O218     O      0.521180000000     0.458860000000     0.538910000000    -0.368562   
O219     O      0.962540000000     0.038400000000     0.571360000000    -0.368119   
O220     O      0.962630000000     0.491990000000     0.959280000000    -0.366296   
O221     O      0.971240000000     0.453750000000     0.544650000000    -0.361823   
O222     O      0.971230000000     0.077030000000     0.985990000000    -0.357307   
O223     O      0.971640000000     0.044720000000     0.953590000000    -0.359025   
O224     O      0.971860000000     0.485990000000     0.577120000000    -0.358724   
O225     O      0.961990000000     0.070800000000     0.539090000000    -0.368973   
O226     O      0.962370000000     0.459530000000     0.991510000000    -0.367599   
O227     O      0.481290000000     0.515310000000     0.515350000000    -0.592288   
O228     O      0.765900000000     0.294430000000     0.703910000000    -0.357014   
O229     O      0.765900000000     0.236170000000     0.826660000000    -0.361425   
O230     O      0.773480000000     0.321750000000     0.788660000000    -0.366058   
O231     O      0.773370000000     0.208660000000     0.741990000000    -0.363883   
O232     O      0.774250000000     0.289400000000     0.820980000000    -0.369195   
O233     O      0.774250000000     0.240970000000     0.709640000000    -0.368514   
O234     O      0.765240000000     0.203750000000     0.794390000000    -0.356731   
O235     O      0.765410000000     0.326780000000     0.736260000000    -0.35733    
O236     O      0.719790000000     0.238630000000     0.706090000000    -0.371766   
O237     O      0.719590000000     0.291880000000     0.824410000000    -0.37117    
O238     O      0.715390000000     0.321390000000     0.740760000000    -0.371421   
O239     O      0.715160000000     0.209310000000     0.789660000000    -0.368451   
O240     O      0.715850000000     0.241540000000     0.822180000000    -0.368287   
O241     O      0.716230000000     0.289190000000     0.708210000000    -0.36483    
O242     O      0.719030000000     0.206580000000     0.738750000000    -0.369131   
O243     O      0.718880000000     0.323910000000     0.791730000000    -0.372132   
O244     O      0.755240000000     0.265280000000     0.765320000000    -0.590747   
O245     O      0.708920000000     0.153480000000     0.699030000000    -0.271521   
O246     O      0.532860000000     0.123020000000     0.956370000000    -0.268986   
O247     O      0.704600000000     0.324890000000     0.657210000000    -0.26942    
O248     O      0.837520000000     0.189760000000     0.736510000000    -0.272493   
O249     O      0.837730000000     0.340360000000     0.794130000000    -0.272217   
O250     O      0.773100000000     0.148890000000     0.838010000000    -0.273179   
O251     O      0.526810000000     0.448660000000     0.903240000000    -0.271067   
O252     O      0.965010000000     0.441620000000     0.631940000000    -0.273034   
O253     O      0.521570000000     0.991280000000     0.071250000000    -0.367646   
O254     O      0.521260000000     0.539610000000     0.459280000000    -0.370143   
O255     O      0.516790000000     0.956120000000     0.488530000000    -0.371646   
O256     O      0.516690000000     0.574620000000     0.041970000000    -0.370311   
O257     O      0.517050000000     0.988640000000     0.456330000000    -0.368311   
O258     O      0.517250000000     0.542110000000     0.074180000000    -0.370866   
O259     O      0.520740000000     0.572040000000     0.491610000000    -0.364606   
O260     O      0.521180000000     0.958860000000     0.038910000000    -0.368598   
O261     O      0.962540000000     0.538400000000     0.071360000000    -0.368077   
O262     O      0.962630000000     0.991990000000     0.459280000000    -0.365985   
O263     O      0.971240000000     0.953750000000     0.044650000000    -0.361851   
O264     O      0.971230000000     0.577030000000     0.485980000000    -0.357748   
O265     O      0.971640000000     0.544720000000     0.453590000000    -0.359069   
O266     O      0.971860000000     0.985990000000     0.077120000000    -0.358392   
O267     O      0.961990000000     0.570800000000     0.039090000000    -0.368997   
O268     O      0.962370000000     0.959530000000     0.491510000000    -0.36793    
O269     O      0.481290000000     0.015310000000     0.015350000000    -0.592566   
O270     O      0.765900000000     0.794430000000     0.203910000000    -0.357017   
O271     O      0.765900000000     0.736170000000     0.326660000000    -0.361392   
O272     O      0.773480000000     0.821750000000     0.288660000000    -0.366031   
O273     O      0.773370000000     0.708660000000     0.241990000000    -0.363864   
O274     O      0.774250000000     0.789400000000     0.320980000000    -0.369176   
O275     O      0.774250000000     0.740970000000     0.209640000000    -0.368497   
O276     O      0.765240000000     0.703760000000     0.294380000000    -0.356745   
O277     O      0.765410000000     0.826780000000     0.236260000000    -0.357323   
O278     O      0.719790000000     0.738630000000     0.206090000000    -0.371773   
O279     O      0.719590000000     0.791880000000     0.324410000000    -0.371239   
O280     O      0.715390000000     0.821390000000     0.240760000000    -0.371428   
O281     O      0.715160000000     0.709310000000     0.289660000000    -0.368579   
O282     O      0.715850000000     0.741540000000     0.322180000000    -0.368261   
O283     O      0.716230000000     0.789190000000     0.208210000000    -0.364834   
O284     O      0.719030000000     0.706580000000     0.238750000000    -0.369141   
O285     O      0.718880000000     0.823910000000     0.291740000000    -0.372241   
O286     O      0.755240000000     0.765280000000     0.265320000000    -0.59075    
O287     O      0.708920000000     0.653480000000     0.199030000000    -0.271407   
O288     O      0.532860000000     0.623020000000     0.456370000000    -0.268953   
O289     O      0.704600000000     0.824890000000     0.157210000000    -0.269423   
O290     O      0.837520000000     0.689760000000     0.236510000000    -0.272519   
O291     O      0.837730000000     0.840360000000     0.294130000000    -0.272201   
O292     O      0.773100000000     0.648890000000     0.338020000000    -0.273034   
O293     O      0.526810000000     0.948660000000     0.403240000000    -0.271089   
O294     O      0.965010000000     0.941620000000     0.131940000000    -0.273028   
O295     O      0.521570000000     0.991280000000     0.571250000000    -0.367636   
O296     O      0.521260000000     0.539610000000     0.959290000000    -0.370266   
O297     O      0.516790000000     0.956120000000     0.988530000000    -0.371311   
O298     O      0.516690000000     0.574620000000     0.541970000000    -0.370157   
O299     O      0.517050000000     0.988640000000     0.956330000000    -0.368308   
O300     O      0.517250000000     0.542110000000     0.574170000000    -0.37101    
O301     O      0.520740000000     0.572040000000     0.991610000000    -0.364311   
O302     O      0.521180000000     0.958860000000     0.538910000000    -0.368548   
O303     O      0.962540000000     0.538400000000     0.571360000000    -0.368081   
O304     O      0.962630000000     0.991990000000     0.959280000000    -0.365955   
O305     O      0.971240000000     0.953750000000     0.544650000000    -0.361819   
O306     O      0.971230000000     0.577030000000     0.985990000000    -0.357304   
O307     O      0.971640000000     0.544720000000     0.953590000000    -0.358989   
O308     O      0.971860000000     0.985990000000     0.577120000000    -0.358403   
O309     O      0.961990000000     0.570800000000     0.539090000000    -0.368967   
O310     O      0.962370000000     0.959530000000     0.991510000000    -0.367579   
O311     O      0.481290000000     0.015310000000     0.515350000000    -0.592427   
O312     O      0.765900000000     0.794430000000     0.703910000000    -0.357014   
O313     O      0.765900000000     0.736170000000     0.826660000000    -0.36145    
O314     O      0.773480000000     0.821750000000     0.788660000000    -0.366054   
O315     O      0.773370000000     0.708660000000     0.741990000000    -0.363883   
O316     O      0.774250000000     0.789400000000     0.820980000000    -0.369196   
O317     O      0.774250000000     0.740970000000     0.709640000000    -0.368515   
O318     O      0.765240000000     0.703760000000     0.794390000000    -0.356857   
O319     O      0.765410000000     0.826780000000     0.736260000000    -0.357325   
O320     O      0.719790000000     0.738630000000     0.706090000000    -0.371769   
O321     O      0.719590000000     0.791880000000     0.824410000000    -0.371172   
O322     O      0.715390000000     0.821390000000     0.740760000000    -0.371419   
O323     O      0.715160000000     0.709310000000     0.789660000000    -0.368455   
O324     O      0.715850000000     0.741540000000     0.822180000000    -0.368289   
O325     O      0.716230000000     0.789190000000     0.708210000000    -0.364831   
O326     O      0.719030000000     0.706580000000     0.738750000000    -0.36914    
O327     O      0.718880000000     0.823910000000     0.791730000000    -0.37213    
O328     O      0.755240000000     0.765280000000     0.765320000000    -0.590752   
O329     O      0.708920000000     0.653480000000     0.699030000000    -0.27151    
O330     O      0.532860000000     0.623020000000     0.956370000000    -0.268988   
O331     O      0.704600000000     0.824890000000     0.657210000000    -0.269413   
O332     O      0.837520000000     0.689760000000     0.736510000000    -0.272495   
O333     O      0.837730000000     0.840360000000     0.794130000000    -0.272219   
O334     O      0.773100000000     0.648890000000     0.838010000000    -0.273172   
O335     O      0.526810000000     0.948660000000     0.903240000000    -0.271058   
O336     O      0.965010000000     0.941620000000     0.631940000000    -0.273026   


